28
Properties=species:S:1:pos:R:3 Iteration=T 33=T Energy=T -611.64978168=T pbc="F F F"
C       -3.01223454      -0.46450210       0.78205079
C       -3.61512055      -0.20738677      -0.45412387
C       -2.80679407      -0.06278111      -1.57115680
N       -1.47700035      -0.14948358      -1.54356432
C       -0.90957225      -0.39376306      -0.36094070
C       -1.62593247      -0.56159439       0.82886293
N        0.48211289      -0.45361609      -0.43721568
C        1.39350861      -0.70903485       0.55456421
O        1.08384730      -0.98431953       1.70310442
C        2.83482875      -0.61006614       0.16357069
C        3.36773864      -0.23251732      -1.19427780
C        3.49730515       0.73847916      -0.06423742
C        2.70329439       2.01853748      -0.05311307
H        3.42518136      -1.31647528       0.73912953
H        4.48573170       0.82113721       0.38331524
H       -4.69453298      -0.12461722      -0.54287278
H       -3.24528444       0.13506268      -2.54772555
H       -1.09287855      -0.76730280       1.74794997
H        0.81427973      -0.34125501      -1.38439951
H        4.24551657      -0.76557440      -1.54716077
H        2.67305151       0.02948483      -1.98983835
H        1.72783323       1.89334754      -0.53320786
H        2.52693507       2.36311246       0.97152847
H        3.24160278       2.80755122      -0.58968691
C       -3.83832401      -0.63338672       2.02333177
H       -4.42415891       0.26997844       2.22826020
H       -4.54873572      -1.46011997       1.90998069
H       -3.21220359      -0.83869282       2.89547079
