28
Properties=species:S:1:pos:R:3 Iteration=T 37=T Energy=T -611.64720405=T pbc="F F F"
C       -3.09561418      -0.46379675       0.74071494
C       -3.60756137       0.18054731      -0.39062955
C       -2.71821681       0.67828974      -1.33069051
N       -1.39318072       0.58190754      -1.22550449
C       -0.91219787      -0.03277852      -0.14241626
C       -1.71518263      -0.57078160       0.86892664
N        0.48125881      -0.07423596      -0.13008371
C        1.32407744      -0.63986535       0.79193757
O        0.92817983      -1.20077420       1.80227918
C        2.78969259      -0.54011971       0.51775584
C        3.38415946      -0.72921114      -0.86340855
C        3.53199123       0.58771433      -0.18102506
C        2.90163374       1.85843644      -0.70212367
H        3.32870185      -1.01051738       1.33349448
H        4.50469879       0.75970532       0.27606891
H       -4.67850231       0.29135717      -0.53430305
H       -3.08375672       1.18521661      -2.22213928
H       -1.25113729      -1.05398137       1.71864683
H        0.87266843       0.36166402      -0.95160990
H        4.23836845      -1.39268246      -0.95953760
H        2.68676957      -0.78477633      -1.69667489
H        2.13867933       1.68577075      -1.46810816
H        2.44632576       2.44731396       0.10085823
H        3.67109883       2.47589987      -1.17718723
C       -4.00937258      -1.03615331       1.78444961
H       -4.73503771      -0.29001025       2.12634089
H       -4.57957304      -1.88044480       1.37930798
H       -3.44896707      -1.39349306       2.65225919
