28
Properties=species:S:1:pos:R:3 Iteration=T 24=T Energy=T -0.17816579=T pbc="F F F"
C       -3.18457822      -0.23075359       0.89925722
C       -3.90308856      -0.57564424      -0.25130566
C       -3.20472383      -0.99941397      -1.38941777
N       -1.86420179      -1.08668875      -1.43544575
C       -1.16478924      -0.73643046      -0.35300913
C       -1.78676896      -0.32293504       0.83798173
N        0.21512674      -0.87996652      -0.46253535
C        1.20984677      -0.18631115       0.16430124
O        1.01658895       0.64709731       1.02640104
C        2.58263712      -0.57962705      -0.33188857
C        3.12068560       0.12694860      -1.56207387
C        3.79125253       0.33786294      -0.22456480
C        3.76190806       1.70992255       0.44046778
H        2.77304561      -1.64755383      -0.28197108
H        4.74534668      -0.16091890      -0.06786003
H       -4.98629405      -0.52348766      -0.26989643
H       -3.73782566      -1.28250337      -2.29554897
H       -1.19114922      -0.07604445       1.70855552
H        0.48204442      -1.47671699      -1.22122876
H        3.64983140      -0.46735342      -2.30313681
H        2.53801985       0.94898689      -1.97336630
H        2.87630326       2.28793417       0.15026496
H        3.75638652       1.61109604       1.53253568
H        4.64474851       2.29553411       0.15887904
C       -3.89540675       0.22700610       2.16048151
H       -4.25558506       1.25650481       2.05096832
H       -4.75894447      -0.41186191       2.37919578
H       -3.23041376       0.19552547       3.03155546
