28   
Iteration 0 Energy -0.17560050
C       -3.1570983200   -0.0722419600    0.6987964800
C       -3.8212070100   -1.1374607500    0.0805133900
C       -3.1045731900   -1.9623480600   -0.7727473700
N       -1.8094230300   -1.8058549000   -1.0454091000
C       -1.1832479700   -0.7873919800   -0.4531786900
C       -1.8059711100    0.1070046400    0.4242868600
N        0.1650320600   -0.7109909900   -0.8026770800
C        1.1130812500    0.2018793700   -0.4151401700
O        0.8766276700    1.1395342200    0.3349323600
C        2.4515220400   -0.0420899100   -1.0190936500
C        3.3264936800    1.1709409400   -1.2447574900
C        3.7220260500    0.1823670900   -0.2069681500
C        3.7006337200    0.5049261400    1.2637582400
H        2.4999550000   -0.8324767300   -1.7644466800
H        4.5192969700   -0.4988654100   -0.5015382200
H       -4.8767577900   -1.3190437400    0.2615922700
H       -3.5920242600   -2.7996853200   -1.2691167700
H       -1.2297969900    0.9100540800    0.8644141200
H        0.4362582300   -1.4538666300   -1.4327609600
H        3.8823583500    1.2246854200   -2.1758768400
H        2.8981759000    2.1072167900   -0.8972340200
H        2.8521098600    1.1445028300    1.5135963700
H        3.6279311700   -0.4098781100    1.8626635300
H        4.6256071800    1.0198784100    1.5470769600
C       -3.8817139400    0.8511520800    1.6335453300
H       -4.7171969600    1.3460519400    1.1253164200
H       -4.3014125300    0.2977329200    2.4812449300
H       -3.2166805500    1.6244717300    2.0268064000
28   
Iteration 1 Energy -0.17854068
C       -3.2286218095   -0.0805465270    0.7016690094
C       -3.8463797138   -1.1602069838    0.0624931441
C       -3.0834375582   -1.9590762555   -0.7769464020
N       -1.7854731244   -1.7615132781   -1.0151341939
C       -1.1942575100   -0.7303398241   -0.4066435842
C       -1.8752195644    0.1371277207    0.4598871991
N        0.1610917327   -0.6247622969   -0.7313045714
C        1.1391338868    0.2682836473   -0.3685872182
O        0.9656744370    1.2262754098    0.3694830627
C        2.4548680000   -0.0358387136   -1.0040672623
C        3.3712251127    1.1379000736   -1.2756840039
C        3.7610070995    0.1483244806   -0.2348106493
C        3.8056815077    0.4917139180    1.2335282803
H        2.4496364933   -0.8382232692   -1.7377777176
H        4.5201676401   -0.5691131241   -0.5431748111
H       -4.9001584577   -1.3735538079    0.2158873491
H       -3.5328043503   -2.8076285837   -1.2899726459
H       -1.3434191118    0.9561011916    0.9228587270
H        0.4315593270   -1.3698177505   -1.3569256779
H        3.9001903059    1.1525253839   -2.2239720300
H        2.9934707112    2.0975270021   -0.9324630226
H        2.9965711111    1.1700048244    1.5090147541
H        3.7169470241   -0.4117490855    1.8474012554
H        4.7610465929    0.9707672803    1.4762085489
C       -4.0026651892    0.8179294242    1.6237363159
H       -4.8390682847    1.2917901746    1.0972469758
H       -4.4268744790    0.2481775154    2.4583167283
H       -3.3698863421    1.6081255626    2.0373309079
28   
Iteration 2 Energy -0.17984595
C       -3.2833541802   -0.0797059815    0.6880882909
C       -3.8872608219   -1.1651951417    0.0461095864
C       -3.1256359369   -1.9859492045   -0.7874103581
N       -1.8182161916   -1.7825000775   -1.0077786297
C       -1.2079958513   -0.7530514601   -0.4112959518
C       -1.9196971012    0.1125043823    0.4413687284
N        0.1504887794   -0.6453153737   -0.7168348014
C        1.0983812109    0.2649777079   -0.3306002688
O        0.8302468296    1.2058462927    0.3918996446
C        2.4505039112   -0.0123452511   -0.9532343688
C        3.3592393946    1.1674290381   -1.2601135355
C        3.8046594753    0.1611579739   -0.2455089906
C        3.9756508378    0.4890409337    1.2329553449
H        2.4304602958   -0.8125292765   -1.6876399916
H        4.5456938692   -0.5580026307   -0.5887737811
H       -4.9419141750   -1.3752475466    0.1897841658
H       -3.5751899706   -2.8366143773   -1.2969884958
H       -1.4089044279    0.9391492795    0.9136637028
H        0.4440752093   -1.3832401753   -1.3301744629
H        3.8603218620    1.1601767497   -2.2246672391
H        3.0125867404    2.1413446099   -0.9201045959
H        3.2281561519    1.1820316682    1.6192619133
H        3.9239820506   -0.4243589760    1.8368109233
H        4.9583065969    0.9450563983    1.4003634090
C       -4.0682972125    0.8349171877    1.6015323243
H       -4.8963941300    1.3081688239    1.0612613511
H       -4.5006067757    0.2727609387    2.4373854074
H       -3.4392811096    1.6296977231    2.0182392292
28   
Iteration 3 Energy -0.18183184
C       -3.2449283839   -0.0849298314    0.6886575833
C       -3.8746123599   -1.1591868880    0.0507781484
C       -3.1269273780   -1.9863440660   -0.7966761521
N       -1.8170896915   -1.7872681406   -1.0239471771
C       -1.1972573055   -0.7651815836   -0.4250778088
C       -1.8774333499    0.1122144475    0.4434338994
N        0.1583356457   -0.6614985792   -0.7357707591
C        1.0937359572    0.2526816865   -0.3364708461
O        0.8909689119    1.2123610888    0.3791247809
C        2.4428765251   -0.0267089323   -0.9787366766
C        3.3458280169    1.1640249384   -1.2726056299
C        3.7685117306    0.1501067864   -0.2413105065
C        3.8992379897    0.4989268066    1.2408986898
H        2.4297531589   -0.8248540126   -1.7151907317
H        4.5386142669   -0.5583262216   -0.5386449081
H       -4.9294556644   -1.3578408189    0.2045854337
H       -3.5884038749   -2.8304069946   -1.3066624242
H       -1.3688706554    0.9349460308    0.9265750144
H        0.4574303403   -1.3904321636   -1.3522663507
H        3.8655974108    1.1720834727   -2.2278197059
H        3.0070900815    2.1421712722   -0.9349911074
H        3.1445273511    1.2077077217    1.5930994677
H        3.8218762105   -0.4043617566    1.8573999369
H        4.8773917624    0.9532668515    1.4376021771
C       -4.0242884083    0.8319760881    1.6151097077
H       -4.8498951660    1.3152645707    1.0798396805
H       -4.4524758849    0.2673892378    2.4515557929
H       -3.3901323200    1.6224231941    2.0351093231
28   
Iteration 4 Energy -0.18168238
C       -3.2355288237   -0.0881682265    0.7067481186
C       -3.8792527867   -1.1519630350    0.0639237893
C       -3.1282167736   -1.9648590464   -0.7965470810
N       -1.8192387254   -1.7844897309   -1.0452188586
C       -1.1929338402   -0.7716351142   -0.4403553832
C       -1.8681700735    0.0933859893    0.4424297930
N        0.1602502680   -0.6590586204   -0.7514651167
C        1.1336091987    0.2245866972   -0.3793427071
O        0.9163463856    1.1758213049    0.3435020399
C        2.4818635737   -0.0488481554   -1.0235942514
C        3.3771431024    1.1539206077   -1.2898747748
C        3.7637107700    0.1425963635   -0.2357229959
C        3.8057639194    0.5189949293    1.2435122144
H        2.4936646574   -0.8442556416   -1.7633338846
H        4.5699724698   -0.5459319734   -0.4792292384
H       -4.9333838198   -1.3519534865    0.2212254628
H       -3.5990204877   -2.8010153519   -1.3109789049
H       -1.3512792310    0.9081025057    0.9322949569
H        0.4430962900   -1.3881246626   -1.3751412643
H        3.9358938674    1.1769635042   -2.2224457844
H        3.0311980868    2.1310244152   -0.9570960906
H        3.0213570703    1.2346531128    1.5180780603
H        3.6898655449   -0.3699017738    1.8747090576
H        4.7660483172    0.9840643560    1.4954751089
C       -3.9959096348    0.8288064170    1.6525331349
H       -4.8214250181    1.3273757389    1.1313456783
H       -4.4169830605    0.2613852154    2.4906484219
H       -3.3484367574    1.6087277895    2.0715192773
28   
Iteration 5 Energy -0.18240694
C       -3.2415773718   -0.0866764350    0.7006651293
C       -3.8731935704   -1.1543077608    0.0534344582
C       -3.1270684842   -1.9728964610   -0.8034491158
N       -1.8179161048   -1.7818945812   -1.0393419553
C       -1.2000052280   -0.7654642582   -0.4312664517
C       -1.8746806818    0.1034791509    0.4476641687
N        0.1547345559   -0.6573693890   -0.7413575538
C        1.1138122784    0.2380112256   -0.3572029452
O        0.9011261892    1.1936777232    0.3617792881
C        2.4606139059   -0.0398775946   -0.9987033485
C        3.3646408151    1.1516315605   -1.2818769630
C        3.7664757502    0.1409533189   -0.2382231538
C        3.8530518999    0.5168047760    1.2386221886
H        2.4559841553   -0.8362941847   -1.7373515245
H        4.5583305064   -0.5553529022   -0.5062666268
H       -4.9280189572   -1.3542200622    0.2076264636
H       -3.5936311376   -2.8108660582   -1.3187574758
H       -1.3577756811    0.9186492053    0.9358044273
H        0.4441503028   -1.3872503838   -1.3627679160
H        3.9101785124    1.1585070765   -2.2222278714
H        3.0345081215    2.1332576307   -0.9469424779
H        3.0883473082    1.2415480222    1.5375074686
H        3.7442351621   -0.3709274497    1.8726021881
H        4.8266217091    0.9689792365    1.4611140577
C       -4.0134916978    0.8252459200    1.6390228108
H       -4.8382908681    1.3185496861    1.1117792768
H       -4.4380808877    0.2559196966    2.4740139997
H       -3.3730759680    1.6083873614    2.0616981886
28   
Iteration 6 Energy -0.18238830
C       -3.2436981783   -0.0913382220    0.6971617486
C       -3.8865659297   -1.1540092145    0.0534367055
C       -3.1334954591   -1.9665016770   -0.8022338483
N       -1.8241368604   -1.7824112568   -1.0415196236
C       -1.1958447245   -0.7702604206   -0.4370055956
C       -1.8771440684    0.0936518235    0.4414807334
N        0.1591815878   -0.6675410825   -0.7492176212
C        1.1072290750    0.2368393330   -0.3575830939
O        0.8952582036    1.1935061076    0.3605665518
C        2.4572029724   -0.0400051199   -0.9890604225
C        3.3586509224    1.1512484692   -1.2762201374
C        3.7673979770    0.1425187070   -0.2347451692
C        3.8592241477    0.5233092751    1.2398042899
H        2.4521894109   -0.8347414225   -1.7295071185
H        4.5608273159   -0.5491253284   -0.5102712628
H       -4.9418317204   -1.3519095014    0.2076910838
H       -3.5997283925   -2.8034177614   -1.3195427133
H       -1.3586179850    0.9074179657    0.9298420111
H        0.4518354501   -1.3980530429   -1.3690013819
H        3.9044885380    1.1579152016   -2.2163287872
H        3.0304856700    2.1322585917   -0.9377144638
H        3.1010107771    1.2556387617    1.5359012218
H        3.7432450946   -0.3609739616    1.8772857969
H        4.8373344264    0.9675562062    1.4582574341
C       -4.0057692295    0.8245785967    1.6383470208
H       -4.8297543308    1.3231008570    1.1147706554
H       -4.4306877886    0.2577185167    2.4748284546
H       -3.3582824511    1.6032335443    2.0581761060
28   
Iteration 7 Energy -0.18248407
C       -3.2429399776   -0.0891849546    0.6988279005
C       -3.8794527128   -1.1536294174    0.0516827568
C       -3.1314186153   -1.9694350665   -0.8053464893
N       -1.8220496273   -1.7802147297   -1.0406954674
C       -1.1987769167   -0.7665729554   -0.4333899139
C       -1.8763348225    0.0995148293    0.4459499518
N        0.1563222464   -0.6628344083   -0.7448703429
C        1.1091985539    0.2381910385   -0.3573810626
O        0.8965277371    1.1948025383    0.3606365541
C        2.4580949255   -0.0413028353   -0.9899416896
C        3.3603652385    1.1488920631   -1.2783871460
C        3.7680899791    0.1403204003   -0.2358738336
C        3.8595979798    0.5226312328    1.2382720638
H        2.4519135934   -0.8363890492   -1.7300184430
H        4.5610632976   -0.5520444957   -0.5108552921
H       -4.9346682589   -1.3519106956    0.2056725581
H       -3.5975758781   -2.8063141445   -1.3227850134
H       -1.3579076883    0.9132663880    0.9344536098
H        0.4470374905   -1.3941593782   -1.3645073110
H        3.9059672218    1.1551609060   -2.2186586474
H        3.0334021328    2.1303507981   -0.9399518643
H        3.1022102983    1.2565994728    1.5328530789
H        3.7416589522   -0.3607556630    1.8766405804
H        4.8382886770    0.9655032433    1.4569391049
C       -4.0106736308    0.8230752812    1.6390847996
H       -4.8349969222    1.3193175194    1.1138722074
H       -4.4358408608    0.2537633250    2.4737773227
H       -3.3670979545    1.6035627041    2.0615986091
28   
Iteration 8 Energy -0.18252838
C       -3.2418112882   -0.0894296096    0.7008157663
C       -3.8772524020   -1.1518544642    0.0493012270
C       -3.1320765407   -1.9673939520   -0.8105872340
N       -1.8224279808   -1.7783486108   -1.0448436874
C       -1.1998574338   -0.7665719361   -0.4338139566
C       -1.8748954526    0.0985234339    0.4485002363
N        0.1554656243   -0.6630915878   -0.7441184386
C        1.1092484267    0.2381148528   -0.3595145797
O        0.8966148740    1.1962579579    0.3564040473
C        2.4584412899   -0.0449463514   -0.9897721719
C        3.3607286714    1.1441162418   -1.2811252898
C        3.7671888332    0.1386694247   -0.2343762587
C        3.8562007302    0.5287095437    1.2379706617
H        2.4521879285   -0.8402842433   -1.7295571702
H        4.5631384050   -0.5512460906   -0.5068480758
H       -4.9326780613   -1.3494473426    0.2026195151
H       -3.5997252297   -2.8021282030   -1.3301414415
H       -1.3547866409    0.9099275854    0.9391766348
H        0.4460124305   -1.3955867470   -1.3623403949
H        3.9089048856    1.1488641499   -2.2199259287
H        3.0371371299    2.1269057296   -0.9432024249
H        3.1072156577    1.2746131779    1.5242347806
H        3.7228440820   -0.3492333670    1.8808016792
H        4.8396540643    0.9596118227    1.4591873079
C       -4.0098254737    0.8200542390    1.6436901704
H       -4.8337002798    1.3182422234    1.1196128410
H       -4.4356079801    0.2481177054    2.4762758707
H       -3.3663338838    1.5990383146    2.0691749105
28   
Iteration 9 Energy -0.18256908
C       -3.2400533172   -0.0914927510    0.7025366294
C       -3.8782808314   -1.1494607366    0.0465009759
C       -3.1346420137   -1.9629476586   -0.8168984263
N       -1.8244234374   -1.7746897431   -1.0494031791
C       -1.2002609052   -0.7665506572   -0.4339520499
C       -1.8725301660    0.0964791430    0.4526862920
N        0.1554180601   -0.6646984590   -0.7429542825
C        1.1102335186    0.2371256213   -0.3626876251
O        0.8955435300    1.1975899316    0.3493410713
C        2.4601472143   -0.0493058145   -0.9907295787
C        3.3623402299    1.1387415339   -1.2858343933
C        3.7666266358    0.1384599447   -0.2324522028
C        3.8508435924    0.5373724125    1.2380513185
H        2.4550039604   -0.8461285252   -1.7288842700
H        4.5662078141   -0.5491746981   -0.4999122548
H       -4.9341270082   -1.3453223714    0.1989446656
H       -3.6036070804   -2.7945703480   -1.3402476814
H       -1.3515065238    0.9044984508    0.9479863320
H        0.4454943344   -1.3989300558   -1.3591065298
H        3.9143420359    1.1399367847   -2.2224330401
H        3.0416441156    2.1236010064   -0.9510243954
H        3.1133369284    1.2989473819    1.5130192271
H        3.6958015469   -0.3334610455    1.8856803067
H        4.8401878406    0.9516496277    1.4647204107
C       -4.0070760211    0.8149326709    1.6494108519
H       -4.8299258984    1.3168336697    1.1272629142
H       -4.4341587892    0.2397852856    2.4791196159
H       -3.3625750228    1.5909832564    2.0788579972
28   
Iteration 10 Energy -0.18261370
C       -3.2377000450   -0.0928840798    0.7066587653
C       -3.8772600555   -1.1449921334    0.0425266531
C       -3.1375833527   -1.9565111826   -0.8263347803
N       -1.8266033519   -1.7717930358   -1.0580058299
C       -1.1990096662   -0.7693776234   -0.4366780839
C       -1.8694449363    0.0891481379    0.4558300869
N        0.1572805287   -0.6696762300   -0.7434364342
C        1.1107377783    0.2351891336   -0.3672386120
O        0.8957026938    1.1998935585    0.3388080330
C        2.4618215109   -0.0546029265   -0.9918268697
C        3.3637579619    1.1323194956   -1.2919391468
C        3.7647533003    0.1399156057   -0.2292777046
C        3.8402125746    0.5496705519    1.2388630652
H        2.4590705159   -0.8546620737   -1.7264451787
H        4.5686271783   -0.5457891929   -0.4886341274
H       -4.9337368730   -1.3385927438    0.1933628446
H       -3.6101697851   -2.7830603969   -1.3544449176
H       -1.3449613295    0.8914311871    0.9568590712
H        0.4481636926   -1.4057467130   -1.3568335852
H        3.9210380873    1.1277232253   -2.2254159022
H        3.0446354880    2.1198503636   -0.9634378180
H        3.1170007887    1.3307522897    1.4972400097
H        3.6561392025   -0.3114733247    1.8918363161
H        4.8360016514    0.9426666749    1.4750288037
C       -4.0013555839    0.8101642352    1.6596976471
H       -4.8225571675    1.3182939162    1.1409814673
H       -4.4303704129    0.2311082726    2.4856883473
H       -3.3541860886    1.5812389329    2.0941667415
28   
Iteration 11 Energy -0.18267202
C       -3.2345845533   -0.0968688513    0.7101398908
C       -3.8796637053   -1.1389763785    0.0354995104
C       -3.1413431290   -1.9447328611   -0.8396137653
N       -1.8293610476   -1.7653376946   -1.0687367001
C       -1.1988291719   -0.7711194595   -0.4374670918
C       -1.8652398605    0.0815868520    0.4633063163
N        0.1586375488   -0.6753189108   -0.7399600170
C        1.1109897018    0.2338600825   -0.3714514677
O        0.8943739067    1.2061155141    0.3239339053
C        2.4634759455   -0.0612695334   -0.9894404759
C        3.3653078510    1.1228656988   -1.3000335038
C        3.7639816373    0.1424174164   -0.2256637760
C        3.8309213266    0.5668719436    1.2383378932
H        2.4626400185   -0.8678479788   -1.7169125318
H        4.5708139407   -0.5434329058   -0.4753500739
H       -4.9372681942   -1.3290250087    0.1830951172
H       -3.6169991846   -2.7640949965   -1.3760955779
H       -1.3366197911    0.8753793927    0.9735611478
H        0.4503353616   -1.4151475471   -1.3486425291
H        3.9272799149    1.1080790392   -2.2305552375
H        3.0472576567    2.1141732029   -0.9821441584
H        3.1295443264    1.3749062153    1.4739771092
H        3.6073063898   -0.2793170075    1.8984768221
H        4.8354396945    0.9293356236    1.4860660594
C       -3.9945107414    0.8003547000    1.6713129753
H       -4.8128074009    1.3175594503    1.1569985470
H       -4.4271579554    0.2153157206    2.4911620778
H       -3.3439162374    1.5638724279    2.1137986515
28   
Iteration 12 Energy -0.18273694
C       -3.2288279919   -0.1025804760    0.7157026078
C       -3.8826221799   -1.1286858298    0.0252236743
C       -3.1488177866   -1.9270266079   -0.8604313118
N       -1.8350422885   -1.7534849571   -1.0839770826
C       -1.1961392501   -0.7731780094   -0.4392649781
C       -1.8578204401    0.0696381757    0.4742430443
N        0.1629436146   -0.6854187986   -0.7371160115
C        1.1121917970    0.2311198805   -0.3789516536
O        0.8912953395    1.2132025877    0.3011845672
C        2.4673271126   -0.0707138414   -0.9879502767
C        3.3698714687    1.1090321158   -1.3133675204
C        3.7626978013    0.1482345606   -0.2195238767
C        3.8140509885    0.5931839640    1.2389682770
H        2.4711343843   -0.8897097022   -1.7013849703
H        4.5714173199   -0.5417926915   -0.4509263250
H       -4.9419241429   -1.3122047442    0.1688276778
H       -3.6292993139   -2.7350083170   -1.4097241727
H       -1.3240984169    0.8503923161    0.9990285339
H        0.4551869490   -1.4301005081   -1.3395568477
H        3.9369891588    1.0783238225   -2.2403776712
H        3.0480336508    2.1054723793   -1.0160361654
H        3.1404831881    1.4327001422    1.4444516729
H        3.5406774520   -0.2321460758    1.9067652539
H        4.8264906860    0.9189915336    1.5047238514
C       -3.9826323319    0.7857697813    1.6897878114
H       -4.7963569282    1.3171418757    1.1827082187
H       -4.4207421593    0.1917213652    2.5002018562
H       -3.3264634825    1.5373304450    2.1443712480
28   
Iteration 13 Energy -0.18280074
C       -3.2210985168   -0.1098210410    0.7241502436
C       -3.8855498646   -1.1120138521    0.0089182661
C       -3.1573308175   -1.8986026727   -0.8917315841
N       -1.8410871152   -1.7372411775   -1.1089241951
C       -1.1937551639   -0.7775018749   -0.4421858209
C       -1.8474967643    0.0508078782    0.4898022351
N        0.1679171691   -0.6996624921   -0.7301633519
C        1.1131463463    0.2271704929   -0.3884934114
O        0.8866536991    1.2244943522    0.2675005366
C        2.4721501482   -0.0845312065   -0.9832632359
C        3.3749238976    1.0885207172   -1.3314519765
C        3.7608942471    0.1567631126   -0.2107593679
C        3.7921675135    0.6313872963    1.2386660973
H        2.4832301991   -0.9232165374   -1.6733883279
H        4.5694381721   -0.5418348233   -0.4155834264
H       -4.9473597906   -1.2863645392    0.1452852552
H       -3.6456882090   -2.6887698966   -1.4596748397
H       -1.3043687779    0.8109673274    1.0350040351
H        0.4618883941   -1.4514752674   -1.3228798645
H        3.9475635810    1.0338762941   -2.2539440808
H        3.0442270480    2.0910157448   -1.0660407078
H        3.1536900094    1.5067730095    1.4038043706
H        3.4593890168   -0.1640219795    1.9157815897
H        4.8109144293    0.9147983831    1.5278768331
C       -3.9663528379    0.7650152468    1.7167784246
H       -4.7725808982    1.3174824069    1.2203774788
H       -4.4132496817    0.1579985716    2.5126495548
H       -3.3022712494    1.4981912718    2.1894891646
28   
Iteration 14 Energy -0.18284767
C       -3.2097769166   -0.1195736416    0.7356542733
C       -3.8886885353   -1.0858759908   -0.0145205283
C       -3.1711394852   -1.8568698246   -0.9370444028
N       -1.8511970113   -1.7114972039   -1.1429545763
C       -1.1903310307   -0.7831660521   -0.4457647502
C       -1.8326610138    0.0240658100    0.5119145303
N        0.1747238480   -0.7215708451   -0.7202791797
C        1.1141470021    0.2191595057   -0.4018242627
O        0.8795054452    1.2356486343    0.2213698429
C        2.4789307820   -0.1059008327   -0.9749971045
C        3.3812081426    1.0572524409   -1.3544993084
C        3.7582094238    0.1670370768   -0.1976093283
C        3.7626126000    0.6869454418    1.2362315044
H        2.5005873130   -0.9704795048   -1.6321465575
H        4.5671173006   -0.5408436842   -0.3659188874
H       -4.9540328536   -1.2452859316    0.1123071574
H       -3.6706298719   -2.6202374332   -1.5313461476
H       -1.2764592089    0.7538851788    1.0850113444
H        0.4702413428   -1.4832631854   -1.2994783315
H        3.9617836444    0.9711855277   -2.2695925668
H        3.0382497635    2.0660568751   -1.1321868618
H        3.1645193925    1.5990230719    1.3467398806
H        3.3633828738   -0.0666401890    1.9252043921
H        4.7835090408    0.9275526405    1.5551200075
C       -3.9434923502    0.7350715231    1.7540582831
H       -4.7381760154    1.3174443381    1.2734740960
H       -4.4036273805    0.1102752696    2.5283257273
H       -3.2685121440    1.4408060933    2.2523520840
28   
Iteration 15 Energy -0.18287925
C       -3.2019699517   -0.1256589280    0.7428350497
C       -3.8909486549   -1.0657770584   -0.0311899219
C       -3.1809124765   -1.8261925942   -0.9684555365
N       -1.8583522755   -1.6945240599   -1.1671994408
C       -1.1886297102   -0.7894507241   -0.4483940897
C       -1.8222665657    0.0038421087    0.5262517293
N        0.1788371780   -0.7396099453   -0.7114965453
C        1.1137299779    0.2105829096   -0.4090150173
O        0.8717188748    1.2384227506    0.1924825831
C        2.4827097066   -0.1214982165   -0.9681249282
C        3.3829214840    1.0358484138   -1.3682342625
C        3.7556922762    0.1738033974   -0.1883992197
C        3.7451996791    0.7253734326    1.2336031791
H        2.5122255942   -1.0023108198   -1.6030238276
H        4.5655849131   -0.5381049101   -0.3333246422
H       -4.9587612807   -1.2135393021    0.0887010215
H       -3.6887909931   -2.5696640803   -1.5806035740
H       -1.2562234472    0.7120404545    1.1169426590
H        0.4760133709   -1.5076209152   -1.2812851465
H        3.9680634378    0.9309305300   -2.2784498750
H        3.0309368286    2.0472574009   -1.1735397986
H        3.1631145645    1.6510719179    1.3125679859
H        3.3184811226   -0.0044357531    1.9316705358
H        4.7647747094    0.9530800707    1.5659179530
C       -3.9274677529    0.7157619793    1.7781120654
H       -4.7129472161    1.3191453918    1.3084324984
H       -4.3979703969    0.0800581065    2.5371183170
H       -3.2447588920    1.4013738880    2.2937008181
28   
Iteration 16 Energy -0.18294654
C       -3.1869447271   -0.1374540537    0.7561257765
C       -3.8957385422   -1.0198525313   -0.0666615446
C       -3.2011528892   -1.7583467762   -1.0331023121
N       -1.8733261096   -1.6575926230   -1.2155430767
C       -1.1859429209   -0.8037811390   -0.4524772596
C       -1.8022298921   -0.0400154874    0.5554300635
N        0.1862055577   -0.7807201089   -0.6896743046
C        1.1113403415    0.1883367414   -0.4208092947
O        0.8529170306    1.2373796221    0.1358764069
C        2.4891336404   -0.1552823998   -0.9503618433
C        3.3830736969    0.9905444254   -1.3922384053
C        3.7499271781    0.1863907685   -0.1694361739
C        3.7150774858    0.8045371284    1.2246311393
H        2.5350848154   -1.0660317513   -1.5404584982
H        4.5638955928   -0.5284700020   -0.2702267682
H       -4.9684777035   -1.1407944353    0.0382872769
H       -3.7256866569   -2.4579675487   -1.6818001102
H       -1.2159352938    0.6208517054    1.1811711035
H        0.4867286974   -1.5619184209   -1.2391919899
H        3.9780412873    0.8499364374   -2.2912072571
H        3.0138334854    2.0046274066   -1.2505285604
H        3.1407221187    1.7382052570    1.2466744885
H        3.2649412623    0.1130674867    1.9466506777
H        4.7295730538    1.0373416380    1.5687522315
C       -3.8962113376    0.6762333074    1.8243762003
H       -4.6602317209    1.3231509693    1.3778017258
H       -4.3905085730    0.0203246541    2.5503418181
H       -3.1981046352    1.3175057838    2.3751990597
28   
Iteration 17 Energy -0.18300958
C       -3.1800742037   -0.1419081161    0.7604678924
C       -3.8988296210   -0.9946993230   -0.0848169022
C       -3.2123545543   -1.7237499063   -1.0645410574
N       -1.8820797086   -1.6412089798   -1.2393179187
C       -1.1860442333   -0.8143103383   -0.4550422749
C       -1.7930710876   -0.0633811255    0.5673724346
N        0.1882900226   -0.8056413419   -0.6765999431
C        1.1074708465    0.1726801282   -0.4229563739
O        0.8382386488    1.2293431966    0.1139272230
C        2.4899155233   -0.1727506761   -0.9393757150
C        3.3784941448    0.9698330883   -1.3995008240
C        3.7455202276    0.1910835863   -0.1598458976
C        3.7070772452    0.8411749342    1.2197712411
H        2.5442140246   -1.0945801328   -1.5112460116
H        4.5641813760   -0.5204645107   -0.2446917309
H       -4.9738738019   -1.1002159008    0.0127905152
H       -3.7455560958   -2.4005620119   -1.7301496027
H       -1.1956900355    0.5742000725    1.2073366295
H        0.4916927972   -1.5931549386   -1.2151990092
H        3.9778716218    0.8168980613   -2.2935264101
H        3.0020516218    1.9838872671   -1.2776863480
H        3.1024056183    1.7555591496    1.2291732231
H        3.2895045560    0.1522937091    1.9634860134
H        4.7175780202    1.1150226638    1.5449025959
C       -3.8808664483    0.6603131820    1.8429404912
H       -4.6327365244    1.3284692235    1.4071377718
H       -4.3883293209   -0.0027753496    2.5531265479
H       -3.1749962389    1.2788506567    2.4096639542
28   
Iteration 18 Energy -0.18305987
C       -3.1771254058   -0.1456158632    0.7637789234
C       -3.9034026251   -0.9736363771   -0.0996456362
C       -3.2219375669   -1.6938115646   -1.0894523884
N       -1.8900468213   -1.6248745174   -1.2577171244
C       -1.1875796544   -0.8189901540   -0.4575519909
C       -1.7886952121   -0.0808043706    0.5770927657
N        0.1882023527   -0.8217737798   -0.6681214392
C        1.1041581244    0.1626341561   -0.4271803541
O        0.8272870546    1.2282145907    0.0879515357
C        2.4903742738   -0.1878826723   -0.9293639796
C        3.3786368873    0.9493877952   -1.4047070405
C        3.7413273652    0.1923197220   -0.1507533743
C        3.7025929734    0.8704048200    1.2152092699
H        2.5493164605   -1.1175244598   -1.4879604938
H        4.5656768967   -0.5140708580   -0.2226796515
H       -4.9800585571   -1.0674279826   -0.0079169699
H       -3.7607434129   -2.3523341768   -1.7687510145
H       -1.1836800046    0.5353995233    1.2312462377
H        0.4938654825   -1.6171971246   -1.1936899494
H        3.9853901524    0.7839059811   -2.2914798991
H        3.0037200556    1.9657685972   -1.2985635526
H        3.0586115161    1.7574967330    1.2197438718
H        3.3326318242    0.1797597963    1.9820553813
H        4.7066533943    1.1956276408    1.5116783367
C       -3.8716167035    0.6451087316    1.8584665839
H       -4.6144215645    1.3296765439    1.4327053419
H       -4.3889552245   -0.0246019780    2.5551786085
H       -3.1601774173    1.2450477814    2.4380283184
28   
Iteration 19 Energy -0.18307071
C       -3.1817599625   -0.1417837596    0.7590841161
C       -3.9051398000   -0.9857156901   -0.0912649689
C       -3.2209015076   -1.7126370950   -1.0740238603
N       -1.8901818244   -1.6362392879   -1.2472632468
C       -1.1902077961   -0.8167519633   -0.4586396651
C       -1.7944088596   -0.0693713433    0.5676995882
N        0.1847502814   -0.8130219506   -0.6757228064
C        1.1024143726    0.1674700378   -0.4249199131
O        0.8278227279    1.2289794922    0.0996736234
C        2.4872108698   -0.1804004001   -0.9327036005
C        3.3771903964    0.9613415198   -1.3962781392
C        3.7418209482    0.1873294540   -0.1541351073
C        3.7150959776    0.8484034361    1.2203867631
H        2.5412878722   -1.1005468477   -1.5072724215
H        4.5684888887   -0.5146688493   -0.2409706113
H       -4.9808160921   -1.0861042232    0.0048879164
H       -3.7567706268   -2.3832082300   -1.7437925133
H       -1.1931988185    0.5606767797    1.2118269690
H        0.4909886317   -1.6072675477   -1.2028058067
H        3.9830179162    0.8065715297   -2.2856137350
H        3.0108824558    1.9788696101   -1.2725083582
H        3.0418848185    1.7126833124    1.2537299471
H        3.3909627394    0.1361551940    1.9881629254
H        4.7147853974    1.2057696644    1.4937326736
C       -3.8785732341    0.6580021006    1.8455399743
H       -4.6277240810    1.3314990192    1.4132902370
H       -4.3890995579   -0.0063396809    2.5523458780
H       -3.1698175152    1.2705121470    2.4151542795
28   
Iteration 20 Energy -0.18307649
C       -3.1810729820   -0.1443359400    0.7620234742
C       -3.9063864119   -0.9772989293   -0.0974555022
C       -3.2227896687   -1.6982433293   -1.0850114369
N       -1.8914347026   -1.6259589514   -1.2546875943
C       -1.1896676726   -0.8156820284   -0.4581234845
C       -1.7930613883   -0.0759946148    0.5742372135
N        0.1859360488   -0.8168476836   -0.6712746715
C        1.1028954430    0.1663052864   -0.4283918286
O        0.8267871214    1.2337750085    0.0832510240
C        2.4889811602   -0.1867669819   -0.9288247138
C        3.3801081610    0.9503813493   -1.4016468234
C        3.7416394821    0.1891288783   -0.1510068207
C        3.7102317837    0.8622071568    1.2175244752
H        2.5442139954   -1.1122237591   -1.4946868738
H        4.5691856957   -0.5128990984   -0.2288162074
H       -4.9826770365   -1.0740588592   -0.0044968241
H       -3.7598658396   -2.3607982891   -1.7617548307
H       -1.1904935893    0.5445630958    1.2262621806
H        0.4921246408   -1.6150761349   -1.1923404322
H        3.9884205625    0.7865407642   -2.2876541237
H        3.0141635699    1.9693250389   -1.2889833448
H        3.0402150610    1.7293219550    1.2395036144
H        3.3795052463    0.1579919641    1.9898908800
H        4.7097762480    1.2184335395    1.4928940090
C       -3.8766659550    0.6480956103    1.8545812156
H       -4.6225666489    1.3283167185    1.4272650626
H       -4.3909288866   -0.0207203874    2.5544225502
H       -3.1665688523    1.2527251697    2.4309000579
28   
Iteration 21 Energy -0.18307744
C       -3.1816155915   -0.1434877044    0.7612004825
C       -3.9056754074   -0.9805703652   -0.0953113016
C       -3.2212686998   -1.7034557009   -1.0808944598
N       -1.8900901668   -1.6293617880   -1.2511838058
C       -1.1893873472   -0.8155943678   -0.4572358592
C       -1.7937627691   -0.0733058313    0.5727214011
N        0.1860315000   -0.8149770232   -0.6716911787
C        1.1032537032    0.1674738513   -0.4270290960
O        0.8281313168    1.2334130113    0.0882832306
C        2.4887317165   -0.1843201245   -0.9301574027
C        3.3789649026    0.9544687297   -1.4005058169
C        3.7425623525    0.1891011516   -0.1529496450
C        3.7119286918    0.8565829997    1.2183658735
H        2.5432235460   -1.1080256230   -1.4989458396
H        4.5696127147   -0.5131365844   -0.2340526699
H       -4.9817678186   -1.0788756803   -0.0016864491
H       -3.7574508492   -2.3689973569   -1.7554126564
H       -1.1923838540    0.5510405370    1.2221411338
H        0.4920919087   -1.6119960597   -1.1946662088
H        3.9855011732    0.7933711795   -2.2882327823
H        3.0126012223    1.9728650285   -1.2843054838
H        3.0449865871    1.7259807346    1.2430865031
H        3.3776622267    0.1504191639    1.9874318941
H        4.7123926813    1.2080506642    1.4965003665
C       -3.8783446494    0.6514034776    1.8512982430
H       -4.6256155951    1.3288086143    1.4219076900
H       -4.3911279177   -0.0159710338    2.5535980312
H       -3.1691810216    1.2593026593    2.4253260884
28   
Iteration 22 Energy -0.18307765
C       -3.1818685952   -0.1431995950    0.7609452917
C       -3.9055467716   -0.9811054466   -0.0950833726
C       -3.2208007600   -1.7044854231   -1.0800797826
N       -1.8896184903   -1.6301369460   -1.2502197335
C       -1.1892452485   -0.8157118721   -0.4566498372
C       -1.7939919586   -0.0727843994    0.5726364711
N        0.1861858421   -0.8148660560   -0.6710200450
C        1.1033387161    0.1676516702   -0.4264237637
O        0.8283003760    1.2334188522    0.0892724662
C        2.4886703420   -0.1839079803   -0.9302218326
C        3.3783059083    0.9554971769   -1.4003315043
C        3.7429857694    0.1892654482   -0.1536565242
C        3.7127263182    0.8549664793    1.2185476912
H        2.5428645626   -1.1070492339   -1.4999504202
H        4.5701643120   -0.5126853166   -0.2359153843
H       -4.9816279740   -1.0796307599   -0.0015691187
H       -3.7567049082   -2.3706233162   -1.7542303391
H       -1.1929645957    0.5523565648    1.2215958348
H        0.4923027880   -1.6117576144   -1.1941445559
H        3.9839741246    0.7951289997   -2.2887838571
H        3.0119911212    1.9737873335   -1.2830433153
H        3.0452659325    1.7239057260    1.2448557282
H        3.3794695770    0.1475819079    1.9869298191
H        4.7131215580    1.2067836585    1.4964882133
C       -3.8790233477    0.6523433288    1.8503205237
H       -4.6266635365    1.3289469498    1.4203090578
H       -4.3914241198   -0.0146545055    2.5532572071
H       -3.1701823674    1.2611707794    2.4237655191
28   
Iteration 23 Energy -0.18307774
C       -3.1819923453   -0.1430434753    0.7608263940
C       -3.9055105586   -0.9809257925   -0.0953592346
C       -3.2205791339   -1.7045055440   -1.0800887086
N       -1.8893297897   -1.6303520229   -1.2498052398
C       -1.1890971093   -0.8159639639   -0.4560754161
C       -1.7940436592   -0.0728419946    0.5729452820
N        0.1863961505   -0.8152929826   -0.6699909587
C        1.1033968223    0.1674961766   -0.4259488145
O        0.8282481454    1.2333804473    0.0894430755
C        2.4886889080   -0.1839793204   -0.9299713360
C        3.3776651733    0.9558596502   -1.4003992266
C        3.7433347310    0.1895429994   -0.1541044527
C        3.7132031309    0.8543691358    1.2185255600
H        2.5427808085   -1.1068649821   -1.5001218443
H        4.5707702997   -0.5120276062   -0.2370129328
H       -4.9816357620   -1.0792807316   -0.0021717900
H       -3.7563715561   -2.3706190778   -1.7543520851
H       -1.1931088161    0.5522885864    1.2220033390
H        0.4925736499   -1.6122283007   -1.1930117348
H        3.9826357924    0.7957263085   -2.2893689694
H        3.0113976440    1.9741065823   -1.2825875127
H        3.0448229928    1.7225640677    1.2458096705
H        3.3812870141    0.1461384623    1.9867077607
H        4.7133844404    1.2071620941    1.4959981600
C       -3.8793873915    0.6527225669    1.8498953912
H       -4.6272798367    1.3288871930    1.4196320205
H       -4.3915122618   -0.0141596614    2.5531423819
H       -3.1707328888    1.2620477214    2.4230416742
28   
Iteration 24 Energy -0.18307777
C       -3.1819820589   -0.1430361921    0.7608299252
C       -3.9055269941   -0.9807010873   -0.0955467395
C       -3.2205901371   -1.7042447860   -1.0803016329
N       -1.8893113842   -1.6302489843   -1.2498862253
C       -1.1890659780   -0.8160488949   -0.4559787957
C       -1.7940048833   -0.0729998759    0.5730963051
N        0.1864538819   -0.8155158357   -0.6697014865
C        1.1034046295    0.1673735461   -0.4258708935
O        0.8281739861    1.2333342458    0.0893196577
C        2.4887109643   -0.1841158114   -0.9298589459
C        3.3775572784    0.9557575603   -1.4004760282
C        3.7433739122    0.1896160660   -0.1541174959
C        3.7131990672    0.8545072304    1.2184801673
H        2.5428312406   -1.1070293980   -1.4999608372
H        4.5708855964   -0.5118668712   -0.2370058390
H       -4.9816737426   -1.0789299107   -0.0024771714
H       -3.7564059131   -2.3702006763   -1.7547021866
H       -1.1930192698    0.5519051068    1.2223325801
H        0.4926326747   -1.6124583697   -1.1927108335
H        3.9824014570    0.7955524450   -2.2895191286
H        3.0113403461    1.9740239546   -1.2826726948
H        3.0445679339    1.7225080073    1.2458020935
H        3.3815862652    0.1462155276    1.9867370105
H        4.7133101955    1.2076088944    1.4958128882
C       -3.8793723215    0.6526618020    1.8499509432
H       -4.6274868574    1.3286281603    1.4197618837
H       -4.3912285037   -0.0142811988    2.5533357740
H       -3.1707567881    1.2621919901    2.4229281046
