28
Properties=species:S:1:pos:R:3 Iteration=T 12=T Energy=T -611.64860076=T pbc="F F F"
C       -3.15879926      -0.20844621       0.66661754
C       -3.82222632      -0.55250982      -0.51618263
C       -3.06682796      -0.89705413      -1.62663260
N       -1.73421359      -0.92194714      -1.64205088
C       -1.10908197      -0.59191479      -0.51076516
C       -1.76840597      -0.22747209       0.66832429
N        0.27978011      -0.64832175      -0.62495047
C        1.24408089      -0.38192841       0.31288139
O        1.00636897      -0.01769787       1.45214704
C        2.63460054      -0.64165886      -0.20066662
C        3.21887111       0.14966158      -1.34393550
C        3.74793457       0.32801594       0.05406395
C        3.51431437       1.62169868       0.79248204
H        2.89457358      -1.69896247      -0.16307311
H        4.71251261      -0.13522785       0.25265683
H       -4.90716899      -0.55121577      -0.56881651
H       -3.55338263      -1.16948175      -2.56161269
H       -1.19009021       0.02914171       1.54649069
H        0.58678033      -0.92107554      -1.54964836
H        3.81796637      -0.37349764      -2.08371541
H        2.61806882       0.96317384      -1.74460111
H        2.56288051       2.07858007       0.50467068
H        3.47919869       1.45727812       1.87339455
H        4.31495905       2.33599526       0.57051856
C       -3.92476341       0.17034991       1.90004340
H       -4.56826055       1.03704684       1.71026686
H       -4.57577104      -0.65020147       2.22294223
H       -3.25389624       0.41787376       2.72674889
