28
Properties=species:S:1:pos:R:3 Iteration=T 27=T Energy=T -611.64627397=T pbc="F F F"
C       -3.04874637      -0.59924208       0.85457919
C       -3.65437881       0.32873420       0.00088754
C       -2.84621438       1.19557467      -0.71897678
N       -1.51514027       1.20181627      -0.65088133
C       -0.94461731       0.31477761       0.16697342
C       -1.66093104      -0.60500737       0.94048844
N        0.44785732       0.39857376       0.16107966
C        1.35880670      -0.31632935       0.89205775
O        1.05203319      -1.15544725       1.72306208
C        2.80436354      -0.00491604       0.63005165
C        3.59224628      -0.79223388      -0.38768892
C        3.43868466       0.68998121      -0.55406747
C        2.70727381       1.24381067      -1.75350651
H        3.31964331       0.13593813       1.57712481
H        4.30790261       1.28296082      -0.27417354
H       -4.73500128       0.37354043      -0.09952088
H       -3.28641743       1.92914638      -1.39223867
H       -1.12813961      -1.29108453       1.58611930
H        0.78749185       1.13408974      -0.44167824
H        4.54476035      -1.21358804      -0.08120884
H        3.02365747      -1.41976849      -1.07030855
H        1.92118154       0.56902900      -2.10756163
H        2.25976791       2.22597834      -1.55298803
H        3.41128603       1.37615774      -2.58211107
C       -3.87244160      -1.56313671       1.65723034
H       -4.55110965      -1.03001320       2.33309677
H       -4.49229127      -2.18660825       1.00302379
H       -3.24152791      -2.22252921       2.25873156
