28
Properties=species:S:1:pos:R:3 Iteration=T 24=T Energy=T -0.18480006=T pbc="F F F"
C       -3.20081076      -0.35355981       0.65606865
C       -3.79053383       0.90231374       0.47255139
C       -2.96929064       2.03269368       0.37112848
N       -1.62820633       1.97131516       0.43656256
C       -1.05083782       0.77658699       0.58732456
C       -1.80093116      -0.40491898       0.72144829
N        0.33792257       0.79309506       0.67747014
C        1.23908172      -0.17179365       0.32884875
O        0.93156017      -1.28593833      -0.04823107
C        2.67335011       0.28220081       0.48396677
C        3.78267870      -0.75072231       0.38069212
C        3.61174986       0.27927928      -0.71017812
C        3.15917379      -0.12430657      -2.10950333
H        2.81762681       1.08892406       1.19672772
H        4.34414922       1.08328731      -0.74091201
H       -4.86822329       1.00969374       0.41371078
H       -3.40075993       3.02324334       0.23675247
H       -1.30237955      -1.35397360       0.87682772
H        0.69822369       1.70383291       0.88607750
H        4.63641671      -0.64741345       1.04572390
H        3.50956692      -1.78011811       0.15604225
H        2.53908074      -1.02840862      -2.09932387
H        2.57696317       0.67891863      -2.57634446
H        4.02505636      -0.32851857      -2.75012823
C       -4.05032595      -1.60579619       0.78206424
H       -4.72337464      -1.53545929       1.64439933
H       -4.66388657      -1.75182279      -0.11452977
H       -3.43303875      -2.50243210       0.91236003
