28
Properties=species:S:1:pos:R:3 Iteration=T 29=T Energy=T -0.17482074=T pbc="F F F"
C       -3.09450578      -0.54516879       0.65596754
C       -3.60361567       0.46495014      -0.16812300
C       -2.71162536       1.30985293      -0.84095357
N       -1.37641555       1.20232194      -0.72997099
C       -0.87701912       0.25942275       0.07351595
C       -1.70016330      -0.64575575       0.76635147
N        0.51226803       0.19342091       0.11081735
C        1.34622805      -0.27586656       1.08327441
O        0.94538027      -0.79870583       2.10250561
C        2.83577608      -0.09437505       0.84117870
C        3.47278698      -0.91160623      -0.26894632
C        3.48897910       0.59687001      -0.35602264
C        2.77800037       1.31015594      -1.50522958
H        3.39932014      -0.05708126       1.76887811
H        4.43210100       1.08960057      -0.12699278
H       -4.67282101       0.59655779      -0.29424048
H       -3.07916511       2.09834891      -1.49562374
H       -1.26369971      -1.42106543       1.38399396
H        0.93826723       0.70067552      -0.63754256
H        4.41013663      -1.41766795      -0.04962436
H        2.81364088      -1.45913522      -0.93943747
H        2.05590015       0.66405479      -2.01842828
H        2.25850647       2.20879114      -1.15022867
H        3.50675216       1.62883607      -2.26025220
C       -4.02154285      -1.49108550       1.39861665
H       -4.57529884      -0.95814292       2.18024947
H       -4.75065313      -1.94167504       0.71524772
H       -3.46751555      -2.30633178       1.87861908
