28
Properties=species:S:1:pos:R:3 Iteration=T 41=T Energy=T -0.18359202=T pbc="F F F"
C       -3.17958864      -0.39104314       0.20124482
C       -3.60163884       0.82536638      -0.34755064
C       -2.67431979       1.86508925      -0.49514200
N       -1.38364115       1.75108499      -0.13763080
C       -0.96236534       0.58818641       0.36594095
C       -1.83054910      -0.49849027       0.56854141
N        0.37681666       0.54910913       0.74033574
C        1.23176420      -0.51382325       0.77458924
O        0.91131565      -1.66346857       0.54769096
C        2.65071446      -0.10979159       1.07404292
C        3.79531851      -0.93304286       0.51963533
C        3.51423008       0.44647528      -0.03980558
C        2.99290629       0.61388832      -1.46310595
H        2.78668155       0.34367304       2.05114068
H        4.21062376       1.23556019       0.23654474
H       -4.63189202       0.97220061      -0.65322484
H       -2.97646966       2.82470405      -0.91137822
H       -1.46122115      -1.41759282       1.00743371
H        0.78029834       1.46089213       0.83553912
H        4.67690961      -1.05989947       1.14301065
H        3.54957254      -1.79651825      -0.09583063
H        2.35237523      -0.22406552      -1.76515394
H        2.40707242       1.53603758      -1.55769709
H        3.82466851       0.66865094      -2.17529079
C       -4.14953245      -1.54423334       0.38819618
H       -5.04050696      -1.22093155       0.93889854
H       -4.47586911      -1.93839563      -0.58121460
H       -3.69366998      -2.36942526       0.94785053
