28
Properties=species:S:1:pos:R:3 Iteration=T 24=T Energy=T -611.64667100=T pbc="F F F"
C       -3.12950036      -0.34321686       0.62722055
C       -3.59768510       0.72961021      -0.13890872
C       -2.67431721       1.59694560      -0.70280349
N       -1.35485283       1.47321536      -0.56260340
C       -0.91595887       0.44697218       0.16911488
C       -1.75543434      -0.48717628       0.78516505
N        0.47591005       0.40313424       0.25108945
C        1.27626106      -0.47608437       0.93074073
O        0.85207599      -1.39100832       1.61665368
C        2.75378307      -0.22659294       0.80507806
C        3.61032325      -1.06778089      -0.10103993
C        3.49671738       0.40963453      -0.34701918
C        2.85903839       0.90129270      -1.62404412
H        3.18264440      -0.04844773       1.78917370
H        4.35255457       1.00481792      -0.03298700
H       -4.66192941       0.88638069      -0.28957377
H       -3.00650789       2.44286554      -1.30216161
H       -1.32364846      -1.28903759       1.36985821
H        0.91758690       1.16660359      -0.24150944
H        4.52808967      -1.48360191       0.30338458
H        3.09493873      -1.71988050      -0.80245641
H        2.04335800       0.24897830      -1.95107599
H        2.46596160       1.92207628      -1.53073228
H        3.60514409       0.91869045      -2.42592596
C       -4.08195471      -1.31509812       1.25962643
H       -4.82171144      -0.79438798       1.87777663
H       -4.63478836      -1.87270104       0.49454916
H       -3.55609729      -2.03600113       1.89100764
