28
Properties=species:S:1:pos:R:3 Iteration=T 21=T Energy=T -611.64988867=T pbc="F F F"
C       -3.03243048      -0.09547480       0.87142710
C       -3.69845754      -0.00007806      -0.35520778
C       -2.96011060      -0.10779417      -1.52372451
N       -1.64125728      -0.29880087      -1.55544059
C       -1.01370595      -0.38987838      -0.38171808
C       -1.65653649      -0.29632312       0.85722088
N        0.36026367      -0.58773838      -0.52052711
C        1.31582327      -0.75026189       0.44744549
O        1.07921058      -0.77181081       1.64431857
C        2.71677081      -0.91084097      -0.06457619
C        3.20720216      -0.43979194      -1.40657236
C        3.61366192       0.30119065      -0.16582270
C        3.06534196       1.67570376       0.11424107
H        3.18369399      -1.80124315       0.34852288
H        4.63301471       0.13905799       0.17805839
H       -4.77283846       0.15438452      -0.39707609
H       -3.44910583      -0.03800220      -2.49383408
H       -1.07731006      -0.38605634       1.76716730
H        0.64535370      -0.65970947      -1.48733551
H        3.93650989      -1.05787556      -1.92180607
H        2.51678350       0.07294592      -2.07399216
H        2.06207020       1.79595434      -0.30921386
H        2.99266930       1.85461522       1.19216671
H        3.70685494       2.44834976      -0.32302479
C       -3.78109617       0.01450370       2.16723020
H       -4.27156426       0.99098751       2.25281221
H       -4.56581859      -0.74772357       2.23164784
H       -3.11499252      -0.10808705       3.02521066
