28   
Iteration 0 Energy -0.17683089
C       -3.0548510100   -0.5507240700    0.8651397000
C       -3.5328483400   -1.7568526800    0.3413738100
C       -2.7269435000   -2.4662035000   -0.5359034000
N       -1.5127607000   -2.0705081100   -0.9169684400
C       -1.0629264100   -0.9201719900   -0.4120923000
C       -1.7897337500   -0.1226337900    0.4786982300
N        0.2137418700   -0.5956791200   -0.8715346300
C        1.0043589300    0.4782154500   -0.5502767400
O        0.6625215900    1.3563625200    0.2305815000
C        2.3260360000    0.4709553000   -1.2364629100
C        3.0711752400    1.7791067000   -1.3208517100
C        3.5977045200    0.7102828500   -0.4280281500
C        3.5821163000    0.8491157000    1.0709312600
H        2.4223798300   -0.2132282500   -2.0758784700
H        4.4478189100    0.1543754200   -0.8204233300
H       -4.5150821500   -2.1342482900    0.6111361200
H       -3.0701302200   -3.4074376000   -0.9618719800
H       -1.3577806200    0.7994625000    0.8449110100
H        0.5755152800   -1.2904306500   -1.5112906100
H        3.5871637200    2.0061552500   -2.2489028800
H        2.5673184400    2.6153267700   -0.8438346200
H        2.6893181100    1.3828460600    1.4040890200
H        3.5967356900   -0.1323288400    1.5582816300
H        4.4654820600    1.4045010500    1.4056310200
C       -3.8806951600    0.2588097400    1.8214098800
H       -4.8586284300    0.4989135000    1.3894308700
H       -4.0644693000   -0.2995651800    2.7466021800
H       -3.3825243100    1.1957757400    2.0836921100
28   
Iteration 1 Energy -0.17962939
C       -3.1232752955   -0.5696927407    0.8726535698
C       -3.5548344839   -1.7816165893    0.3245671719
C       -2.7070646628   -2.4569381638   -0.5416870391
N       -1.4947633118   -2.0201325979   -0.8879130077
C       -1.0800290481   -0.8637261467   -0.3642142283
C       -1.8601125347   -0.1034507942    0.5194448520
N        0.2007169340   -0.5098890833   -0.7984337546
C        1.0243711378    0.5489435981   -0.5060802096
O        0.7447782089    1.4614918853    0.2567809850
C        2.3313763027    0.4742287517   -1.2235782799
C        3.1273840441    1.7489654697   -1.3622795159
C        3.6369876841    0.6805911233   -0.4572036731
C        3.6766492400    0.8548533821    1.0403424793
H        2.3772377256   -0.2333222783   -2.0474371961
H        4.4517047248    0.0805620567   -0.8591285201
H       -4.5317994187   -2.1899452742    0.5660675577
H       -3.0121578740   -3.4022999590   -0.9871055679
H       -1.4730272964    0.8263554509    0.9115944074
H        0.5617491364   -1.2076586966   -1.4330582784
H        3.6263364132    1.9291321494   -2.3099327837
H        2.6732508313    2.6189548189   -0.8952699487
H        2.8203418623    1.4331194483    1.3936365609
H        3.6672281239   -0.1153493966    1.5499396973
H        4.5930069501    1.3799584433    1.3327233875
C       -3.9944830077    0.2063212894    1.8191381231
H       -4.9682832030    0.4245061401    1.3665277393
H       -4.1840090226   -0.3678433091    2.7334478351
H       -3.5292675601    1.1540734864    2.1040458229
28   
Iteration 2 Energy -0.18116772
C       -3.1800288372   -0.5756314691    0.8625142046
C       -3.5972437316   -1.7903130576    0.3097140299
C       -2.7462771355   -2.4881671408   -0.5489170135
N       -1.5238791772   -2.0439374488   -0.8764727847
C       -1.0909354797   -0.8868343304   -0.3650885770
C       -1.9013089252   -0.1340341350    0.5060126237
N        0.1942710250   -0.5300199113   -0.7786270090
C        0.9883491023    0.5390828284   -0.4592672088
O        0.6254962839    1.4237274622    0.2935198376
C        2.3235185702    0.4977518435   -1.1694182634
C        3.1209353755    1.7764029559   -1.3570826395
C        3.6774070657    0.7055936686   -0.4714051941
C        3.8445872838    0.8736108800    1.0330746456
H        2.3513875874   -0.2134662640   -1.9893563387
H        4.4693676103    0.1001622981   -0.9070730908
H       -4.5770745958   -2.1948720262    0.5406535058
H       -3.0515238382   -3.4350336292   -0.9912647873
H       -1.5345742545    0.7993898892    0.9081488515
H        0.5773501620   -1.2157323784   -1.4033349201
H        3.5931140327    1.9231691595   -2.3250727396
H        2.7042123983    2.6717602489   -0.9002543984
H        3.0486280621    1.4610518142    1.4942809499
H        3.8690555279   -0.1028225283    1.5307238539
H        4.7907427230    1.3834513389    1.2485680760
C       -4.0671294847    0.2133619060    1.7994179768
H       -5.0333116820    0.4327148630    1.3304937423
H       -4.2681647349   -0.3552370143    2.7147898763
H       -3.6069582850    1.1650627136    2.0883111119
28   
Iteration 3 Energy -0.18296071
C       -3.1412585187   -0.5714044483    0.8571898108
C       -3.5856947552   -1.7841033055    0.3192660700
C       -2.7461346540   -2.4978594431   -0.5460762902
N       -1.5197825727   -2.0601196073   -0.8816345796
C       -1.0746208744   -0.9047115707   -0.3771666270
C       -1.8588112373   -0.1269209855    0.4989665011
N        0.2082099582   -0.5547519240   -0.7967474650
C        0.9904214909    0.5169701232   -0.4678141292
O        0.6724186369    1.4252447343    0.2728549395
C        2.3217343286    0.4766415022   -1.1998189017
C        3.0858467290    1.7866152720   -1.3394907047
C        3.6475154479    0.6830632590   -0.4761038899
C        3.7801993958    0.8629186081    1.0362480662
H        2.3573783922   -0.2162201037   -2.0353859033
H        4.4742908762    0.1031266507   -0.8802293033
H       -4.5671609490   -2.1754451273    0.5625858342
H       -3.0634840044   -3.4440104861   -0.9814941186
H       -1.4959117223    0.8079732308    0.9027895257
H        0.5941164293   -1.2318330837   -1.4233882995
H        3.5680759375    1.9825837292   -2.2943544808
H        2.6650504149    2.6680058679   -0.8582175773
H        2.9719840354    1.4540937625    1.4779428187
H        3.7954612988   -0.1107472682    1.5400421713
H        4.7178546884    1.3778959834    1.2762919838
C       -4.0247723813    0.2293936467    1.7989851153
H       -4.9896486786    0.4553765014    1.3301050305
H       -4.2225869477   -0.3335083349    2.7185722366
H       -3.5606780116    1.1819257088    2.0836704403
28   
Iteration 4 Energy -0.18304329
C       -3.1373720290   -0.5756781943    0.8707681716
C       -3.5887640832   -1.7838803992    0.3270932078
C       -2.7441133097   -2.4815501503   -0.5465959989
N       -1.5169787604   -2.0592891616   -0.8967123806
C       -1.0736484829   -0.9087391415   -0.3831740621
C       -1.8546056887   -0.1405019385    0.5016646775
N        0.2057746846   -0.5474284672   -0.7999849534
C        1.0200963879    0.5053209549   -0.4909930489
O        0.6898416729    1.3994758316    0.2621290192
C        2.3455394213    0.4761291486   -1.2287186804
C        3.1144166064    1.7835148052   -1.3599480652
C        3.6449167420    0.6804988370   -0.4733816669
C        3.7178668710    0.8677058661    1.0396949441
H        2.3910582814   -0.2115259486   -2.0685748456
H        4.4940166790    0.1086228573   -0.8417104134
H       -4.5687091054   -2.1798705622    0.5699953912
H       -3.0664305508   -3.4238785105   -0.9865572713
H       -1.4839802119    0.7911679331    0.9081430428
H        0.5789762831   -1.2235269476   -1.4363999103
H        3.6203138116    1.9824149891   -2.3015837651
H        2.6984462949    2.6698513167   -0.8842062991
H        2.8869723643    1.4684855530    1.4281949461
H        3.7029717820   -0.1015179840    1.5518877882
H        4.6458362733    1.3799298076    1.3197609589
C       -4.0091240578    0.2262308808    1.8235508540
H       -4.9753712955    0.4624067130    1.3627467381
H       -4.2017789510   -0.3383016399    2.7432195065
H       -3.5361551339    1.1741266408    2.1072804256
28   
Iteration 5 Energy -0.18340402
C       -3.1413203645   -0.5744313568    0.8667982310
C       -3.5810945086   -1.7842212866    0.3185451768
C       -2.7410113721   -2.4880497654   -0.5521270199
N       -1.5156237306   -2.0553444774   -0.8925257823
C       -1.0805367998   -0.9028841540   -0.3759752414
C       -1.8606040026   -0.1313070088    0.5058374197
N        0.2005674076   -0.5450140420   -0.7931313024
C        1.0019798760    0.5148967233   -0.4713854226
O        0.6859904727    1.4170475934    0.2791857007
C        2.3267436144    0.4826828101   -1.2040045428
C        3.1090606430    1.7771303501   -1.3612024404
C        3.6443957647    0.6827097503   -0.4729997506
C        3.7483412434    0.8691288380    1.0366265072
H        2.3592552819   -0.2091783531   -2.0408157246
H        4.4817074861    0.1050516131   -0.8591174318
H       -4.5616976023   -2.1804673709    0.5594964207
H       -3.0597718120   -3.4312967587   -0.9926613562
H       -1.4886567436    0.8005344260    0.9100826124
H        0.5789234374   -1.2203411832   -1.4292332158
H        3.6103543290    1.9543642189   -2.3093286416
H        2.7097412143    2.6724528542   -0.8885782605
H        2.9315585792    1.4793940870    1.4381532827
H        3.7321167520   -0.0992277484    1.5502873290
H        4.6876857970    1.3707936767    1.2969088497
C       -4.0213996535    0.2204466093    1.8148516803
H       -4.9868240091    0.4516122377    1.3499846977
H       -4.2158565114   -0.3460722915    2.7329069396
H       -3.5540122751    1.1697831297    2.1010095831
28   
Iteration 6 Energy -0.18341984
C       -3.1420067406   -0.5758048615    0.8633083426
C       -3.5902586344   -1.7870052516    0.3260740503
C       -2.7465800708   -2.4908190151   -0.5416018939
N       -1.5208964828   -2.0599879027   -0.8857670185
C       -1.0737000092   -0.9062820724   -0.3816204378
C       -1.8611149605   -0.1372675231    0.4968390349
N        0.2075140756   -0.5542285882   -0.8044721117
C        1.0018580191    0.5101202174   -0.4794373964
O        0.6800469139    1.4091243592    0.2717773693
C        2.3297334879    0.4797694039   -1.2081016904
C        3.0974107586    1.7844424323   -1.3484206880
C        3.6463266525    0.6852234055   -0.4734519826
C        3.7515761848    0.8641794553    1.0381107419
H        2.3672004683   -0.2039737413   -2.0512452462
H        4.4906194669    0.1220837315   -0.8655894285
H       -4.5708207358   -2.1809984455    0.5704761523
H       -3.0640471665   -3.4362888102   -0.9783198408
H       -1.4927382357    0.7968267842    0.8982540460
H        0.5863183773   -1.2305475839   -1.4386852077
H        3.5998424298    1.9766076108   -2.2931281302
H        2.6905824656    2.6704264929   -0.8644494378
H        2.9370786894    1.4704574574    1.4487977009
H        3.7384170299   -0.1074104695    1.5457657846
H        4.6908810782    1.3658890545    1.2985265251
C       -4.0163337444    0.2285756908    1.8091010461
H       -4.9825311092    0.4598690861    1.3458465122
H       -4.2095619495   -0.3311901552    2.7315494752
H       -3.5448037632    1.1784022828    2.0874520677
28   
Iteration 7 Energy -0.18347761
C       -3.1409026093   -0.5731950198    0.8646622271
C       -3.5821269682   -1.7861705535    0.3254152147
C       -2.7418098477   -2.4945471373   -0.5420448185
N       -1.5171187974   -2.0586571756   -0.8835486844
C       -1.0771613658   -0.9032765448   -0.3770057717
C       -1.8608135206   -0.1296094495    0.5007756253
N        0.2034519895   -0.5486333652   -0.7990012613
C        1.0048871184    0.5119627458   -0.4798518677
O        0.6820826609    1.4095931631    0.2725291652
C        2.3310509282    0.4784901970   -1.2117995818
C        3.0993136363    1.7830408360   -1.3505884818
C        3.6464757652    0.6820586621   -0.4757648092
C        3.7492606419    0.8610294122    1.0361317338
H        2.3662088362   -0.2031657839   -2.0567495141
H        4.4932434477    0.1216745049   -0.8664958381
H       -4.5622379023   -2.1810810671    0.5699873048
H       -3.0586534436   -3.4407840898   -0.9775554443
H       -1.4933830455    0.8054318688    0.9010101849
H        0.5798854968   -1.2256974104   -1.4336476475
H        3.6025180706    1.9775024683   -2.2944501258
H        2.6964827154    2.6694344853   -0.8639354458
H        2.9382212004    1.4736166758    1.4446457538
H        3.7274312776   -0.1102755979    1.5440480289
H        4.6915339584    1.3558890171    1.2989632608
C       -4.0213147450    0.2268590158    1.8089053878
H       -4.9873891984    0.4539741670    1.3433109171
H       -4.2139531418   -0.3341887694    2.7306992511
H       -3.5551706848    1.1789177821    2.0889435756
28   
Iteration 8 Energy -0.18350174
C       -3.1408016109   -0.5742208184    0.8654550606
C       -3.5813726724   -1.7876108195    0.3258946083
C       -2.7378753160   -2.4921905420   -0.5413314227
N       -1.5129550228   -2.0611052554   -0.8866533144
C       -1.0774483032   -0.9055041058   -0.3776924665
C       -1.8606537083   -0.1319910956    0.5000076575
N        0.2023709901   -0.5465842416   -0.7977536124
C        1.0033856288    0.5131565734   -0.4750725411
O        0.6860205639    1.4111251067    0.2795337468
C        2.3274702524    0.4823666534   -1.2094658487
C        3.1028334784    1.7820135117   -1.3554363040
C        3.6434738892    0.6825339246   -0.4753102775
C        3.7443153133    0.8606012875    1.0362018593
H        2.3585307276   -0.1989204617   -2.0548812134
H        4.4904567645    0.1215220732   -0.8647679372
H       -4.5609276812   -2.1845721191    0.5695361084
H       -3.0549917919   -3.4384373408   -0.9766051750
H       -1.4914754643    0.8031597197    0.8989366745
H        0.5800316832   -1.2208969643   -1.4349010872
H        3.6069524254    1.9713397755   -2.2998095058
H        2.7088141868    2.6731860354   -0.8703852941
H        2.9379673231    1.4835809406    1.4391848083
H        3.7083354307   -0.1099234385    1.5447819784
H        4.6915259297    1.3440493551    1.3024797495
C       -4.0205147307    0.2262081127    1.8098219077
H       -4.9868272815    0.4532912168    1.3447346703
H       -4.2124667184   -0.3342995386    2.7320865698
H       -3.5541618279    1.1783154744    2.0889989562
28   
Iteration 9 Energy -0.18352890
C       -3.1411146739   -0.5739162407    0.8646147755
C       -3.5808989301   -1.7889646001    0.3285299288
C       -2.7375714147   -2.4956416487   -0.5371668735
N       -1.5133097768   -2.0622032295   -0.8824422123
C       -1.0763159943   -0.9051642502   -0.3776672141
C       -1.8615761319   -0.1311915814    0.4979868951
N        0.2031600447   -0.5472253145   -0.7999527241
C        1.0036912552    0.5125926933   -0.4760791757
O        0.6858266437    1.4086350289    0.2805126184
C        2.3278654896    0.4831288205   -1.2105507385
C        3.1006742472    1.7847323940   -1.3520887373
C        3.6443278344    0.6831509042   -0.4765254971
C        3.7453177105    0.8571138711    1.0355653745
H        2.3588784641   -0.1946941808   -2.0587346709
H        4.4930633484    0.1268569369   -0.8689106003
H       -4.5601410662   -2.1857678005    0.5736639689
H       -3.0534026520   -3.4433065725   -0.9702903642
H       -1.4943362499    0.8055353989    0.8948010004
H        0.5802633646   -1.2215392406   -1.4373689766
H        3.6050632757    1.9777566190   -2.2955759914
H        2.7070737467    2.6737679554   -0.8627597250
H        2.9434952701    1.4851561953    1.4395606160
H        3.7016164480   -0.1142706850    1.5419011243
H        4.6959308613    1.3328718419    1.3035698679
C       -4.0213220006    0.2282091677    1.8070305094
H       -4.9880842570    0.4529027863    1.3417118036
H       -4.2123543651   -0.3299202888    2.7309275681
H       -3.5558080711    1.1815880658    2.0833258744
28   
Iteration 10 Energy -0.18356015
C       -3.1423770242   -0.5733411198    0.8618825865
C       -3.5789114380   -1.7935230402    0.3350831863
C       -2.7324696264   -2.5027846369   -0.5253783896
N       -1.5098243590   -2.0659184523   -0.8722683951
C       -1.0754463238   -0.9042379726   -0.3756820984
C       -1.8645908953   -0.1270387413    0.4937628635
N        0.2027277254   -0.5453108747   -0.8013652590
C        1.0038730172    0.5132895147   -0.4748075698
O        0.6863334110    1.4048976413    0.2871202424
C        2.3268797532    0.4869845333   -1.2116124575
C        3.0959781445    1.7914981797   -1.3450080577
C        3.6458506610    0.6842777459   -0.4805493956
C        3.7502255601    0.8464886659    1.0327159693
H        2.3554066105   -0.1829573105   -2.0661084981
H        4.4965404717    0.1367511008   -0.8809435034
H       -4.5569194038   -2.1917072247    0.5828623478
H       -3.0440605834   -3.4545372508   -0.9525746903
H       -1.5022556018    0.8142374044    0.8840780774
H        0.5789841988   -1.2187931922   -1.4401222844
H        3.5987030572    1.9923007847   -2.2877688663
H        2.7056386378    2.6763737382   -0.8455879806
H        2.9638215351    1.4912416459    1.4405262915
H        3.6826237734   -0.1266789808    1.5329768875
H        4.7119591249    1.2974407826    1.3039155778
C       -4.0259232784    0.2322071980    1.7980682692
H       -4.9936747863    0.4491502561    1.3311266004
H       -4.2147103048   -0.3197181956    2.7261452547
H       -3.5643696430    1.1896008413    2.0671018914
28   
Iteration 11 Energy -0.18358353
C       -3.1428479309   -0.5705094694    0.8610744439
C       -3.5699603540   -1.7984527761    0.3448356935
C       -2.7222483367   -2.5134128643   -0.5098481032
N       -1.5022352250   -2.0724676197   -0.8613424962
C       -1.0722661505   -0.9042937564   -0.3759736208
C       -1.8672015806   -0.1240526726    0.4856594784
N        0.2031044314   -0.5414976431   -0.8068347444
C        1.0048400035    0.5145800453   -0.4737096677
O        0.6918554441    1.3987857554    0.2985644484
C        2.3251016108    0.4944684420   -1.2160789101
C        3.0928017025    1.8009818799   -1.3380482778
C        3.6448076606    0.6858106754   -0.4848450084
C        3.7469863879    0.8307615429    1.0304516384
H        2.3507307266   -0.1655453130   -2.0783356455
H        4.4976914114    0.1463756467   -0.8914824044
H       -4.5455679918   -2.1997352343    0.5969541976
H       -3.0298148916   -3.4706966722   -0.9275015146
H       -1.5099839649    0.8234671717    0.8653886804
H        0.5782348422   -1.2115335696   -1.4496795600
H        3.5938940146    2.0115198254   -2.2795790600
H        2.7062686411    2.6813199918   -0.8277034569
H        2.9825554684    1.5010016428    1.4392928728
H        3.6398308149   -0.1434925400    1.5216363286
H        4.7232563182    1.2430826735    1.3110603631
C       -4.0303873580    0.2395200948    1.7897755667
H       -5.0001045067    0.4452434412    1.3218159192
H       -4.2146287059   -0.3037289805    2.7238694391
H       -3.5747000987    1.2026933728    2.0481722438
28   
Iteration 12 Energy -0.18361653
C       -3.1434544906   -0.5700251015    0.8573579808
C       -3.5636492622   -1.8066789833    0.3563375843
C       -2.7096344323   -2.5235158226   -0.4904299968
N       -1.4930053169   -2.0771893255   -0.8466102335
C       -1.0712844497   -0.9011751725   -0.3730711302
C       -1.8715259855   -0.1157633745    0.4787919617
N        0.2006534314   -0.5330144585   -0.8093179334
C        1.0057537043    0.5179421463   -0.4683609965
O        0.6978918158    1.3922294691    0.3172763026
C        2.3219115596    0.5058091336   -1.2180573127
C        3.0921979261    1.8116672418   -1.3310430874
C        3.6448948467    0.6872251865   -0.4906508874
C        3.7487644122    0.8127613223    1.0260840005
H        2.3422205916   -0.1450309636   -2.0873912299
H        4.4955194954    0.1506139279   -0.9056849733
H       -4.5363780548   -2.2119812263    0.6131255212
H       -3.0095608186   -3.4874944824   -0.8981219911
H       -1.5225285781    0.8394393265    0.8468337424
H        0.5735536829   -1.1986797283   -1.4580129241
H        3.5892588181    2.0297223666   -2.2729930865
H        2.7109496756    2.6883330281   -0.8105299844
H        3.0122257547    1.5122158461    1.4377293812
H        3.5969173517   -0.1603787952    1.5076238532
H        4.7410723013    1.1792489017    1.3139431010
C       -4.0373874170    0.2438614307    1.7764008100
H       -5.0090606200    0.4355094310    1.3065343138
H       -4.2166470959   -0.2893756972    2.7172090838
H       -3.5896565424    1.2139176871    2.0226172351
28   
Iteration 13 Energy -0.18364788
C       -3.1448935958   -0.5674676690    0.8531441431
C       -3.5536671485   -1.8153324041    0.3703793669
C       -2.6922190708   -2.5352610652   -0.4661126477
N       -1.4795360248   -2.0850583845   -0.8300886111
C       -1.0702365820   -0.8991130577   -0.3710275389
C       -1.8771152598   -0.1071002647    0.4680124017
N        0.1970501680   -0.5227055972   -0.8132385510
C        1.0063279526    0.5214233259   -0.4616312319
O        0.7058805412    1.3831534508    0.3407647485
C        2.3173510261    0.5196982614   -1.2199238461
C        3.0889160869    1.8257063429   -1.3183392347
C        3.6447008423    0.6880587295   -0.4978537071
C        3.7531283039    0.7896994013    1.0201229890
H        2.3328206687   -0.1209667475   -2.0969061887
H        4.4892840723    0.1507476180   -0.9241909162
H       -4.5225691122   -2.2262141705    0.6327657070
H       -2.9837483960   -3.5075038083   -0.8600311038
H       -1.5363732195    0.8573135614    0.8197397431
H        0.5675916566   -1.1821731384   -1.4696904353
H        3.5796869013    2.0554557389   -2.2607871656
H        2.7080024281    2.6950015596   -0.7854520126
H        3.0452004223    1.5141471637    1.4391184508
H        3.5604118236   -0.1821384780    1.4895586259
H        4.7594805858    1.1111063698    1.3130218088
C       -4.0465691940    0.2518015128    1.7596579464
H       -5.0204140431    0.4260149555    1.2875204179
H       -4.2198932207   -0.2682015814    2.7089488231
H       -3.6085863560    1.2301020213    1.9901073780
28   
Iteration 14 Energy -0.18367577
C       -3.1449306122   -0.5640540493    0.8484915473
C       -3.5397899173   -1.8251708626    0.3889163201
C       -2.6710041184   -2.5496979961   -0.4361421182
N       -1.4638775475   -2.0928007001   -0.8101683257
C       -1.0678113320   -0.8951815518   -0.3704614980
C       -1.8828593126   -0.0961138929    0.4535978098
N        0.1929352521   -0.5088841689   -0.8221166110
C        1.0073101705    0.5256953465   -0.4548916274
O        0.7164373584    1.3691894087    0.3701431071
C        2.3117797506    0.5387547432   -1.2243781746
C        3.0888486293    1.8423926428   -1.3055032807
C        3.6421663082    0.6893177437   -0.5044321059
C        3.7528756602    0.7606364031    1.0150837287
H        2.3224232217   -0.0907573615   -2.1094735209
H        4.4781142550    0.1467264504   -0.9409400902
H       -4.5035974449   -2.2424536112    0.6598068178
H       -2.9522585281   -3.5317894239   -0.8127159349
H       -1.5528767210    0.8792805112    0.7851231719
H        0.5596064624   -1.1593218607   -1.4896122622
H        3.5731892672    2.0854659726   -2.2479363131
H        2.7067357420    2.7040526205   -0.7612429613
H        3.0714868985    1.5042970542    1.4448310157
H        3.5225691283   -0.2109167818    1.4679391197
H        4.7701571443    1.0387197635    1.3144884033
C       -4.0554663939    0.2613709448    1.7406607181
H       -5.0321569600    0.4142573816    1.2670196011
H       -4.2205731079   -0.2421870821    2.7002281172
H       -3.6294210779    1.2493663024    1.9512749411
28   
Iteration 15 Energy -0.18370669
C       -3.1465338060   -0.5593344101    0.8426568909
C       -3.5255858505   -1.8345555703    0.4092850771
C       -2.6491775424   -2.5652398323   -0.4022705362
N       -1.4479596943   -2.1021618112   -0.7875667977
C       -1.0660057676   -0.8920774603   -0.3704488070
C       -1.8904546211   -0.0853404927    0.4361621054
N        0.1874935455   -0.4954643908   -0.8325054001
C        1.0073130094    0.5283121467   -0.4479297379
O        0.7257296378    1.3514978607    0.4005924781
C        2.3054760711    0.5575695975   -1.2272437747
C        3.0857525252    1.8601706158   -1.2855520002
C        3.6405296025    0.6887441304   -0.5123645985
C        3.7581062217    0.7288822537    1.0076473789
H        2.3107118507   -0.0569842955   -2.1228514697
H        4.4673172145    0.1443354727   -0.9637945025
H       -4.4839471280   -2.2580692851    0.6896949368
H       -2.9195175326   -3.5578363130   -0.7587537861
H       -1.5712092713    0.9013851725    0.7444593601
H        0.5501032496   -1.1363452144   -1.5114007478
H        3.5642059096    2.1213518910   -2.2261315721
H        2.7021766137    2.7104868260   -0.7247890424
H        3.0929304789    1.4784652818    1.4525691744
H        3.5090245614   -0.2458806838    1.4433893883
H        4.7818021137    0.9803955926    1.3086637778
C       -4.0664074877    0.2736364406    1.7181033165
H       -5.0456311946    0.4036869703    1.2428861715
H       -4.2234589921   -0.2107951585    2.6888066403
H       -3.6527716149    1.2713589035    1.9062757967
28   
Iteration 16 Energy -0.18376335
C       -3.1521310055   -0.5464648635    0.8261571320
C       -3.4879085391   -1.8562071832    0.4659427581
C       -2.5899000776   -2.6023382216   -0.3074769698
N       -1.4050445614   -2.1227606480   -0.7226610537
C       -1.0612328996   -0.8816080453   -0.3692575500
C       -1.9125928968   -0.0568957814    0.3887428665
N        0.1719005930   -0.4589765925   -0.8602912009
C        1.0061854765    0.5346580049   -0.4314131273
O        0.7471015713    1.3026090782    0.4742495854
C        2.2885664535    0.6065445492   -1.2334412887
C        3.0772236633    1.9045403840   -1.2300354219
C        3.6351621257    0.6872910666   -0.5326456439
C        3.7745252076    0.6410255192    0.9853432668
H        2.2785133438    0.0369144727   -2.1582459446
H        4.4409792013    0.1474632897   -1.0255377105
H       -4.4313231204   -2.2948223420    0.7725908636
H       -2.8292115065   -3.6209691948   -0.6083585008
H       -1.6237732880    0.9570931683    0.6337856817
H        0.5233148822   -1.0753437270   -1.5671126042
H        3.5425283081    2.2159531968   -2.1618710973
H        2.6946158678    2.7229541996   -0.6230963780
H        3.1370311471    1.3845612364    1.4787062297
H        3.5021015623   -0.3481326390    1.3720027717
H        4.8090396700    0.8463309877    1.2843915942
C       -4.0983621752    0.3047192927    1.6548737740
H       -5.0825628805    0.3729233504    1.1770596528
H       -4.2357985038   -0.1262906911    2.6533512612
H       -3.7189357808    1.3254229442    1.7818369972
28   
Iteration 17 Energy -0.18383379
C       -3.1507651735   -0.5427945049    0.8227049940
C       -3.4840821316   -1.8562713909    0.4738656580
C       -2.5864659740   -2.6076725389   -0.2951454924
N       -1.4036998888   -2.1285784489   -0.7171800394
C       -1.0620432635   -0.8836409099   -0.3755188651
C       -1.9133618676   -0.0549756468    0.3775993350
N        0.1670975877   -0.4572824336   -0.8723218323
C        1.0014035598    0.5321504280   -0.4344783946
O        0.7384701251    1.2941286138    0.4751092283
C        2.2852493300    0.6100961589   -1.2335375569
C        3.0734172372    1.9083409035   -1.2172742636
C        3.6319720228    0.6846738399   -0.5318859249
C        3.7772461498    0.6299290911    0.9853787772
H        2.2758980892    0.0489906656   -2.1635365262
H        4.4371205442    0.1492094466   -1.0305962781
H       -4.4257406090   -2.2943545187    0.7865988681
H       -2.8242715869   -3.6293830001   -0.5866335736
H       -1.6228859775    0.9606250595    0.6147855784
H        0.5186231561   -1.0702889416   -1.5819296667
H        3.5413146558    2.2295648891   -2.1444701498
H        2.6894511607    2.7202351493   -0.6024594954
H        3.1052803466    1.3348715484    1.4891142725
H        3.5564179066   -0.3757866760    1.3620679152
H        4.8010456424    0.8839939212    1.2838462785
C       -4.0963148248    0.3131457951    1.6472750446
H       -5.0817859285    0.3762255358    1.1713800440
H       -4.2303973263   -0.1103460535    2.6494207403
H       -3.7181811105    1.3353887370    1.7654110039
28   
Iteration 18 Energy -0.18393707
C       -3.1566108680   -0.5320960097    0.8076112505
C       -3.4583674999   -1.8679267729    0.5199949572
C       -2.5446002341   -2.6322577065   -0.2169916823
N       -1.3747210597   -2.1428835657   -0.6630097809
C       -1.0606063821   -0.8771468791   -0.3759088381
C       -1.9321109564   -0.0356417684    0.3377812488
N        0.1519189010   -0.4334405835   -0.8960499786
C        0.9953115281    0.5329027276   -0.4261994145
O        0.7404351549    1.2559657195    0.5169911487
C        2.2713663571    0.6410096502   -1.2339365281
C        3.0623027041    1.9363725277   -1.1663862613
C        3.6269994989    0.6813795229   -0.5466235909
C        3.7962979827    0.5602710697    0.9643152332
H        2.2470570713    0.1287657194   -2.1914215923
H        4.4288764029    0.1764254730   -1.0811717216
H       -4.3887372222   -2.3136313480    0.8549361436
H       -2.7582854337   -3.6712891117   -0.4622733144
H       -1.6630197743    0.9967170989    0.5248339034
H        0.4963004748   -1.0296489922   -1.6231274164
H        3.5255615517    2.3006824043   -2.0798826059
H        2.6949836031    2.7189100035   -0.5050357669
H        3.1110902722    1.2184575012    1.5112411882
H        3.6133869835   -0.4688213607    1.2953133092
H        4.8159953609    0.8331974696    1.2601477750
C       -4.1212236125    0.3378114650    1.5942774063
H       -5.1089964837    0.3543369233    1.1192689106
H       -4.2426223117   -0.0415887294    2.6155253762
H       -3.7679702172    1.3733623930    1.6633701335
28   
Iteration 19 Energy -0.18396444
C       -3.1565685576   -0.5322929884    0.8061557080
C       -3.4671589285   -1.8655374352    0.5156050524
C       -2.5563272799   -2.6324745326   -0.2223237840
N       -1.3835716636   -2.1474766265   -0.6653398423
C       -1.0625703232   -0.8838261720   -0.3759383161
C       -1.9293963021   -0.0393030244    0.3398843033
N        0.1534546258   -0.4452545759   -0.8921819839
C        0.9921295776    0.5280821677   -0.4284204627
O        0.7275363407    1.2617653634    0.5039589266
C        2.2716493003    0.6314170181   -1.2314334743
C        3.0549243778    1.9325575578   -1.1671075196
C        3.6271567674    0.6829190963   -0.5447637253
C        3.8014382332    0.5639699943    0.9658896980
H        2.2449163972    0.1279341393   -2.1934531779
H        4.4453034731    0.2048159569   -1.0793802423
H       -4.4003650888   -2.3065927192    0.8487645822
H       -2.7746874679   -3.6698454698   -0.4705075289
H       -1.6544547426    0.9906660245    0.5316241206
H        0.5006484467   -1.0447085276   -1.6151809778
H        3.5195650554    2.2975212008   -2.0796571671
H        2.7031622312    2.7153665147   -0.4975808616
H        3.0939235927    1.1933812625    1.5177255896
H        3.6584348861   -0.4726525234    1.2928668845
H        4.8105294923    0.8741580829    1.2614023895
C       -4.1166499256    0.3403691046    1.5949230156
H       -5.1039442430    0.3640792063    1.1192154870
H       -4.2417651795   -0.0423916439    2.6144668765
H       -3.7573012742    1.3735480237    1.6683756337
28   
Iteration 20 Energy -0.18398014
C       -3.1596594996   -0.5294656411    0.8017223328
C       -3.4568957249   -1.8699092892    0.5305809385
C       -2.5376643064   -2.6383714767   -0.1953623586
N       -1.3689221964   -2.1496602763   -0.6447148986
C       -1.0607926611   -0.8792886072   -0.3715311315
C       -1.9366310118   -0.0318447579    0.3294119333
N        0.1496329626   -0.4336628095   -0.8944283489
C        0.9933414319    0.5304838773   -0.4209665130
O        0.7372461914    1.2486553659    0.5258622586
C        2.2673149648    0.6452477552   -1.2311590209
C        3.0540409641    1.9432802043   -1.1526590984
C        3.6269184237    0.6832442749   -0.5518628202
C        3.8074117415    0.5399718295    0.9559324209
H        2.2346992808    0.1536698679   -2.1991365790
H        4.4385117095    0.2067278948   -1.0977576344
H       -4.3861635642   -2.3151930734    0.8690795022
H       -2.7462164637   -3.6811523781   -0.4288715283
H       -1.6714260505    1.0037926700    0.5042684841
H        0.4927320179   -1.0260747967   -1.6251404354
H        3.5115861411    2.3204008445   -2.0638478368
H        2.7040026551    2.7170293686   -0.4718189212
H        3.1109276271    1.1711771842    1.5197867799
H        3.6513663627   -0.4990825483    1.2690302828
H        4.8221963731    0.8315777326    1.2508758895
C       -4.1292954850    0.3456595676    1.5760295291
H       -5.1163575879    0.3519023784    1.0992965825
H       -4.2513733031   -0.0223693509    2.6013511766
H       -3.7805192477    1.3834488022    1.6336183329
28   
Iteration 21 Energy -0.18398187
C       -3.1590201959   -0.5305033556    0.8033990319
C       -3.4602023210   -1.8685060095    0.5246925439
C       -2.5430389841   -2.6358330670   -0.2049935529
N       -1.3725873827   -2.1485906126   -0.6513493006
C       -1.0608877499   -0.8805576717   -0.3713587221
C       -1.9341925890   -0.0342471054    0.3342434320
N        0.1518269341   -0.4372459278   -0.8911485356
C        0.9941840773    0.5299211738   -0.4213715786
O        0.7368640460    1.2528245890    0.5215220109
C        2.2690130610    0.6415008285   -1.2307128870
C        3.0551461577    1.9403076497   -1.1585205927
C        3.6278874930    0.6838150916   -0.5503069635
C        3.8054951650    0.5481826484    0.9585103724
H        2.2380874979    0.1438137071   -2.1956223248
H        4.4401496924    0.2041928517   -1.0924741240
H       -4.3909620226   -2.3128118575    0.8603747998
H       -2.7547649827   -3.6767024588   -0.4441059431
H       -1.6661175006    0.9994805661    0.5154403597
H        0.4957609694   -1.0314526241   -1.6200294379
H        3.5113940561    2.3123427470   -2.0724452983
H        2.7032934291    2.7177189591   -0.4828202859
H        3.1088436261    1.1835747857    1.5174939375
H        3.6470900486   -0.4889071999    1.2768995820
H        4.8202428945    0.8395426226    1.2538231436
C       -4.1262354870    0.3433452727    1.5822019353
H       -5.1130446628    0.3554181943    1.1050578218
H       -4.2500242024   -0.0301009033    2.6053569866
H       -3.7741893201    1.3796717044    1.6458329489
28   
Iteration 22 Energy -0.18398241
C       -3.1591669751   -0.5302615779    0.8030875010
C       -3.4602315547   -1.8684077070    0.5249019414
C       -2.5428266564   -2.6360347412   -0.2041750795
N       -1.3722583592   -2.1490388415   -0.6504479526
C       -1.0606957452   -0.8808692588   -0.3708816892
C       -1.9342028514   -0.0342167367    0.3340501053
N        0.1520932046   -0.4376300264   -0.8905520348
C        0.9942895379    0.5296646815   -0.4207839369
O        0.7368503074    1.2524858330    0.5221592729
C        2.2689443233    0.6417065943   -1.2303785957
C        3.0545903932    1.9408340723   -1.1578475469
C        3.6281343954    0.6842736178   -0.5506001433
C        3.8060898417    0.5471006162    0.9580490469
H        2.2378440196    0.1443988370   -2.1954784172
H        4.4409535479    0.2062117369   -1.0933071241
H       -4.3910687381   -2.3125963283    0.8605238770
H       -2.7544877762   -3.6770110113   -0.4428791163
H       -1.6661038069    0.9995687670    0.5149029998
H        0.4959342585   -1.0315930711   -1.6196697442
H        3.5088876326    2.3132916674   -2.0725729806
H        2.7032485034    2.7178542485   -0.4814337092
H        3.1083235265    1.1804127215    1.5179867027
H        3.6497317680   -0.4907019261    1.2751203075
H        4.8203280724    0.8399674652    1.2536211896
C       -4.1266059496    0.3439107877    1.5812545839
H       -5.1133028888    0.3557126315    1.1038715855
H       -4.2506723397   -0.0291132424    2.6045301788
H       -3.7746079313    1.3802747387    1.6445381429
28   
Iteration 23 Energy -0.18398262
C       -3.1593204236   -0.5299329725    0.8026343230
C       -3.4598363493   -1.8684736856    0.5257450481
C       -2.5420354482   -2.6365095537   -0.2024141888
N       -1.3715770468   -2.1495071267   -0.6489602917
C       -1.0604896641   -0.8809666102   -0.3705414820
C       -1.9344570303   -0.0339216995    0.3333141591
N        0.1520860508   -0.4375186729   -0.8904918516
C        0.9943169469    0.5294888946   -0.4202269185
O        0.7369564846    1.2515517084    0.5233305236
C        2.2687271431    0.6423577458   -1.2301025854
C        3.0540350083    1.9416569410   -1.1564657183
C        3.6283070496    0.6845841175   -0.5510515662
C        3.8067487693    0.5452684710    0.9573463996
H        2.2374599140    0.1457215414   -2.1955431338
H        4.4414494530    0.2081123068   -1.0946714688
H       -4.3905700859   -2.3126627057    0.8616539224
H       -2.7532834213   -3.6777938709   -0.4401385446
H       -1.6666709325    1.0001432339    0.5131171367
H        0.4957016079   -1.0309876628   -1.6201154077
H        3.5063684391    2.3150486418   -2.0717843442
H        2.7031498214    2.7178693197   -0.4788908565
H        3.1081050302    1.1765253245    1.5184948929
H        3.6521992282   -0.4933096159    1.2727571443
H        4.8205727383    0.8393122656    1.2531709558
C       -4.1272051926    0.3446691762    1.5797608783
H       -5.1138465321    0.3555801470    1.1022421840
H       -4.2512652323   -0.0273438524    2.6034053613
H       -3.7756145474    1.3812328825    1.6420146915
28   
Iteration 24 Energy -0.18398265
C       -3.1592924018   -0.5298984847    0.8025965112
C       -3.4597363128   -1.8684935031    0.5259007609
C       -2.5419162904   -2.6365721168   -0.2021905987
N       -1.3715046081   -2.1495330414   -0.6488356149
C       -1.0604732033   -0.8809422224   -0.3705987518
C       -1.9344807545   -0.0338673262    0.3331672352
N        0.1520387230   -0.4374458256   -0.8906500117
C        0.9942842839    0.5294992878   -0.4202782027
O        0.7369312426    1.2514045078    0.5233970526
C        2.2686935017    0.6424644876   -1.2301371322
C        3.0539719009    1.9417546764   -1.1562911793
C        3.6282683924    0.6846009727   -0.5510512774
C        3.8067322585    0.5450439810    0.9573239694
H        2.2375503814    0.1457546132   -2.1955439660
H        4.4414467112    0.2082716345   -1.0947422749
H       -4.3904318808   -2.3126919877    0.8619023367
H       -2.7531009944   -3.6779018696   -0.4397722699
H       -1.6667539102    1.0002457541    0.5127969613
H        0.4956167246   -1.0308413755   -1.6203501337
H        3.5062019899    2.3152699514   -2.0716106776
H        2.7030412458    2.7178548699   -0.4786109112
H        3.1080943164    1.1761918972    1.5185986756
H        3.6522353951   -0.4935928877    1.2725672866
H        4.8205455113    0.8390986381    1.2531745714
C       -4.1272075115    0.3447505724    1.5796313836
H       -5.1138697831    0.3555198967    1.1021526662
H       -4.2511806026   -0.0271019376    2.6033447138
H       -3.7756925639    1.3813515252    1.6416981893
