28
Properties=species:S:1:pos:R:3 Iteration=T 40=T Energy=T -611.64986581=T pbc="F F F"
C       -3.08501916       0.03643960       0.63406614
C       -3.61677915       0.32053926      -0.62806789
C       -2.77084277       0.29834457      -1.72690051
N       -1.46916995       0.02111644      -1.65823414
C       -0.97011764      -0.25126537      -0.45101956
C       -1.72902114      -0.25992255       0.72350000
N        0.39735156      -0.52680375      -0.48503228
C        1.23032958      -0.89706316       0.53860676
O        0.86054670      -1.06250911       1.69005794
C        2.66946812      -1.08448400       0.16617887
C        3.30708603      -0.66195597      -1.13081447
C        3.60587119       0.10665866       0.11971659
C        3.08396836       1.50713162       0.30503194
H        3.07495517      -1.96992240       0.64756490
H        4.57873640      -0.07510731       0.57177806
H       -4.67092530       0.55170342      -0.75112915
H       -3.15452336       0.51292172      -2.72283051
H       -1.25216491      -0.50157445       1.66445914
H        0.76688010      -0.51326601      -1.42528146
H        4.06647840      -1.31614271      -1.54888554
H        2.70699948      -0.15531517      -1.88424525
H        2.11748962       1.64460168      -0.19110077
H        2.94571933       1.73406021       1.36750275
H        3.78257696       2.23941969      -0.11408591
C       -3.94696370       0.06423769       1.86189543
H       -4.19970415       1.09645394       2.13275272
H       -4.89015922      -0.46705320       1.69597460
H       -3.43905602      -0.39104566       2.71612813
