28
Properties=species:S:1:pos:R:3 Iteration=T 36=T Energy=T -0.17929572=T pbc="F F F"
C       -3.06667640      -0.39030642       0.96410894
C       -3.70386631      -0.17678215      -0.26357333
C       -2.93605662      -0.15274839      -1.43508778
N       -1.60241432      -0.32075968      -1.43989012
C       -0.97879908      -0.50235819      -0.27295327
C       -1.67513329      -0.56276362       0.94661483
N        0.39603076      -0.69741856      -0.35777660
C        1.37248097      -0.39958009       0.54981178
O        1.15386307      -0.00345407       1.67636270
C        2.77863468      -0.62594807       0.04394794
C        3.15201487      -0.38210581      -1.41008061
C        3.62326700       0.57375048      -0.33702318
C        3.07892882       1.99614166      -0.26620263
H        3.30214752      -1.42280404       0.56303304
H        4.67472978       0.52519769      -0.06108625
H       -4.77792155      -0.03571766      -0.31779121
H       -3.40599441       0.00308165      -2.40477029
H       -1.14161003      -0.74348461       1.87198304
H        0.69334068      -0.95947870      -1.27674907
H        3.89449143      -1.03724935      -1.85983996
H        2.39715988      -0.01613912      -2.10273416
H        2.04222561       2.05686456      -0.61934839
H        3.10312257       2.36718497       0.76559439
H        3.68175522       2.67329520      -0.88260894
C       -3.85801184      -0.43383062       2.25931325
H       -4.33286755       0.53407397       2.45757095
H       -4.64674066      -1.19348042       2.20995304
H       -3.21810250      -0.67297483       3.11681604
