28   
Iteration 0 Energy -0.17208544
C       -3.1330888000   -0.3447681400    0.5459732000
C       -3.7644331200    0.8933689900    0.7078541800
C       -2.9794918900    2.0312598000    0.8122685000
N       -1.6472535400    2.0228118800    0.7706491400
C       -1.0523626200    0.8384237200    0.6172102600
C       -1.7438382800   -0.3723428900    0.4986003300
N        0.3385355800    0.9364068700    0.5869672000
C        1.2775876700   -0.0510032000    0.4316312600
O        0.9981089900   -1.2320350200    0.2793077000
C        2.6768534600    0.4626525800    0.4204523600
C        3.7970254900   -0.5383709400    0.4741771600
C        3.5498285600    0.1936086500   -0.8010045100
C        3.0180105800   -0.5067729000   -2.0233583600
H        2.8311405500    1.4229569600    0.9077472400
H        4.2377548500    1.0104000000   -1.0135007200
H       -4.8473484900    0.9671773800    0.7496352500
H       -3.4400345400    3.0098446100    0.9364609500
H       -1.1905649300   -1.2935916400    0.3706462300
H        0.6554238300    1.8926441600    0.6767089000
H        4.6675033200   -0.2902077500    1.0736767100
H        3.4739679500   -1.5749915100    0.5187175300
H        2.3048727200   -1.2892226200   -1.7513695400
H        2.5127941600    0.1983499200   -2.6932860400
H        3.8402119500   -0.9697324300   -2.5803605600
C       -3.9328773400   -1.6086344100    0.4239143300
H       -4.5535951500   -1.7654813900    1.3134588400
H       -4.6089937900   -1.5614636000   -0.4373935800
H       -3.2857353000   -2.4810850400    0.3018137900
28   
Iteration 1 Energy -0.17433727
C       -3.2021084129   -0.3422605661    0.5602150068
C       -3.7852394435    0.9186579387    0.7199749042
C       -2.9550723475    2.0266857484    0.8117444827
N       -1.6228405699    1.9646631822    0.7592709821
C       -1.0630424615    0.7616736382    0.6078336313
C       -1.8132603842   -0.4191981578    0.5023529846
N        0.3326795911    0.8227107774    0.5677283258
C        1.3099069570   -0.1296771685    0.4165653323
O        1.1087187378   -1.3249032684    0.2667062684
C        2.6831619866    0.4601990317    0.4101724205
C        3.8598073814   -0.4762166643    0.4736186092
C        3.5799479473    0.2402998803   -0.8056939306
C        3.1000642707   -0.4895111591   -2.0356906943
H        2.7804105138    1.4281620957    0.8963699847
H        4.2213205506    1.0947949806   -1.0146735900
H       -4.8639095373    1.0342348053    0.7699474908
H       -3.3759930671    3.0232053792    0.9341007687
H       -1.3074821832   -1.3658865355    0.3752203383
H        0.6442266134    1.7794597121    0.6525930722
H        4.7107003206   -0.1761040521    1.0778698513
H        3.5989491802   -1.5304250659    0.5191502098
H        2.4308677907   -1.3135255954   -1.7750689427
H        2.5614473373    0.1867900841   -2.7093766351
H        3.9529887453   -0.9031074723   -2.5854489124
C       -4.0500351298   -1.5779748150    0.4513657233
H       -4.6687748051   -1.7070019454    1.3467786607
H       -4.7306268228   -1.5103749035   -0.4050805960
H       -3.4368108995   -2.4751678164    0.3290520007
28   
Iteration 2 Energy -0.17567320
C       -3.2594090092   -0.3441597207    0.5934847681
C       -3.8299308160    0.9222499450    0.7519768557
C       -3.0135063597    2.0541186855    0.8264950026
N       -1.6748288667    1.9795410190    0.7520464166
C       -1.0812591221    0.7904304257    0.6005219483
C       -1.8613479394   -0.3809414210    0.5189878498
N        0.3130412259    0.8462885714    0.5371816290
C        1.2580906888   -0.1322436464    0.3753155874
O        0.9633246688   -1.3079113028    0.2739721474
C        2.6760329510    0.4133461466    0.3802153204
C        3.8743468202   -0.5138687395    0.4925352617
C        3.6351995007    0.2216569883   -0.7986535246
C        3.2620156627   -0.4753029466   -2.1034875461
H        2.7651975047    1.3764664116    0.8739241665
H        4.2730537732    1.0843041142   -0.9782493129
H       -4.9065747189    1.0361757034    0.8174571302
H       -3.4410642241    3.0479363539    0.9488879397
H       -1.3820048794   -1.3407213384    0.3942791506
H        0.6429307220    1.7897827436    0.6097041523
H        4.7016655385   -0.1786116672    1.1131802056
H        3.6705586938   -1.5821220194    0.5355362295
H        2.6084496672   -1.3412271475   -1.9678295795
H        2.7555977169    0.2217163465   -2.7814443045
H        4.1664174669   -0.8342211276   -2.6085234251
C       -4.1090603920   -1.5956555404    0.5065681560
H       -4.7106094262   -1.7213027194    1.4143347845
H       -4.7996899287   -1.5388889967   -0.3428389523
H       -3.4966354057   -2.4966327302    0.3820193207
28   
Iteration 3 Energy -0.17753371
C       -3.2173429454   -0.3341960872    0.5890798645
C       -3.8237490707    0.9176237792    0.7411853969
C       -3.0135870366    2.0582238517    0.8131358239
N       -1.6726738775    1.9958284771    0.7404640477
C       -1.0816799695    0.8055814768    0.5945573874
C       -1.8168248370   -0.3946449560    0.5139022632
N        0.3099961549    0.8695971027    0.5315911233
C        1.2439715081   -0.1172249564    0.3725022222
O        1.0084536589   -1.3050266524    0.2745156382
C        2.6615089629    0.4368736057    0.3841613163
C        3.8239379628   -0.5424002627    0.4845358068
C        3.6111670283    0.2453263776   -0.7886913495
C        3.2259234117   -0.4651386113   -2.0854136558
H        2.7694659203    1.3822344484    0.9073163889
H        4.2784816255    1.0835424229   -0.9770822735
H       -4.9018992113    1.0142519732    0.8039296137
H       -3.4502278608    3.0485237706    0.9320602199
H       -1.3338689489   -1.3546893873    0.3973972476
H        0.6437265798    1.8098311732    0.6023835903
H        4.6638850721   -0.2594211206    1.1147000102
H        3.5940094233   -1.6065114134    0.4915656326
H        2.5646952644   -1.3237862300   -1.9261814918
H        2.7193408227    0.2264837766   -2.7688804223
H        4.1213793209   -0.8413143588   -2.5941101233
C       -4.0642816689   -1.5932418058    0.5078025775
H       -4.6638570481   -1.7180656604    1.4170128653
H       -4.7520671915   -1.5451051932   -0.3444626869
H       -3.4478821201   -2.4929528614    0.3886200177
28   
Iteration 4 Energy -0.17778790
C       -3.2146140676   -0.3420765343    0.5725386721
C       -3.8203263594    0.9100669202    0.7287547677
C       -3.0043754878    2.0451103960    0.8115100975
N       -1.6628487438    2.0125224038    0.7493572839
C       -1.0711229509    0.8246378041    0.5999687135
C       -1.8131445061   -0.3678973123    0.5088861248
N        0.3200772347    0.8782501650    0.5441494164
C        1.2767916768   -0.0856517556    0.3848731983
O        1.0267135895   -1.2696204758    0.2713506821
C        2.6919824915    0.4599859387    0.3961686429
C        3.8375975426   -0.5369158461    0.4801506516
C        3.6067723705    0.2450148483   -0.7924656143
C        3.1541816634   -0.4773909051   -2.0556806225
H        2.8224523563    1.3964309932    0.9310349186
H        4.2945809283    1.0590620824   -1.0120865932
H       -4.8988338185    1.0097373476    0.7862432659
H       -3.4487886318    3.0314921050    0.9338122490
H       -1.3138287013   -1.3204399097    0.3899329568
H        0.6475535716    1.8212383612    0.6253883879
H        4.6932667173   -0.2810219493    1.1000305266
H        3.5870807270   -1.5960563295    0.4831004747
H        2.4785181664   -1.3112129732   -1.8294406878
H        2.6310571366    0.2096231155   -2.7311899081
H        4.0153012598   -0.8884987985   -2.5954822353
C       -4.0451051083   -1.6103537571    0.4774869782
H       -4.6486009890   -1.7495574792    1.3819473378
H       -4.7267752042   -1.5664023326   -0.3798459820
H       -3.4155620393   -2.4998735612    0.3571032748
28   
Iteration 5 Energy -0.17812657
C       -3.2155876752   -0.3411214301    0.5743913907
C       -3.8095718217    0.9157448970    0.7314698872
C       -3.0019284549    2.0560770937    0.8144654449
N       -1.6611440449    1.9989422935    0.7489759655
C       -1.0752321389    0.8077191081    0.5988537917
C       -1.8154541889   -0.3862937476    0.5075766438
N        0.3165227910    0.8650133573    0.5427832032
C        1.2655172231   -0.1066226603    0.3807899771
O        1.0203103501   -1.2916136849    0.2676901221
C        2.6789500556    0.4427168144    0.3953953863
C        3.8518714395   -0.5195031657    0.4897511280
C        3.6034895317    0.2382256052   -0.7922552985
C        3.1671170410   -0.4776563700   -2.0652006994
H        2.7930513534    1.3820688714    0.9286955710
H        4.2782559870    1.0637914982   -1.0089854967
H       -4.8880747750    1.0158200717    0.7898553818
H       -3.4407288212    3.0449477999    0.9369073301
H       -1.3215548724   -1.3410504472    0.3873298948
H        0.6464314996    1.8074720519    0.6247375895
H        4.7004530068   -0.2285563846    1.1037147796
H        3.6338490160   -1.5857005122    0.5027755796
H        2.5048253571   -1.3256603314   -1.8552164828
H        2.6357390850    0.2087626911   -2.7348182915
H        4.0379997141   -0.8671334185   -2.6053146001
C       -4.0597893405   -1.5997627281    0.4812510328
H       -4.6630416498   -1.7323358550    1.3868513063
H       -4.7426949031   -1.5486153699   -0.3746803140
H       -3.4395798705   -2.4954735596    0.3598067896
28   
Iteration 6 Energy -0.17811377
C       -3.2176311407   -0.3346872853    0.5792614383
C       -3.8283433801    0.9145427228    0.7314790039
C       -3.0116029193    2.0491976881    0.8084261853
N       -1.6699879952    2.0002214930    0.7433262892
C       -1.0710301352    0.8147910236    0.5977116358
C       -1.8170297103   -0.3767078016    0.5122425711
N        0.3207567363    0.8785958672    0.5415954685
C        1.2602629159   -0.1024614062    0.3803903026
O        1.0115852717   -1.2867819422    0.2716727440
C        2.6766976522    0.4418455621    0.3941183507
C        3.8378763704   -0.5348728705    0.4877113144
C        3.6075201581    0.2361314509   -0.7904039494
C        3.1792266561   -0.4720374529   -2.0719667693
H        2.7971632585    1.3750586507    0.9364492510
H        4.2934005197    1.0549455026   -0.9972981408
H       -4.9070074550    1.0119872895    0.7897286581
H       -3.4496606864    3.0388703995    0.9270787401
H       -1.3263874790   -1.3332337953    0.3956015442
H        0.6525918961    1.8202431271    0.6206659506
H        4.6892498031   -0.2503334845    1.1009633774
H        3.6133716967   -1.5999140898    0.4920456926
H        2.5154730648   -1.3224152491   -1.8790228127
H        2.6542729049    0.2201393357   -2.7407549922
H        4.0548119678   -0.8575002731   -2.6073747537
C       -4.0519597970   -1.6006448410    0.4905746674
H       -4.6542563676   -1.7346733771    1.3966072619
H       -4.7348673261   -1.5581282977   -0.3658374207
H       -3.4244956037   -2.4919755487    0.3726054397
28   
Iteration 7 Energy -0.17821528
C       -3.2163499265   -0.3399646563    0.5785829459
C       -3.8177887742    0.9141471856    0.7285411837
C       -3.0079518672    2.0538214803    0.8049673173
N       -1.6665326333    2.0015277062    0.7402399946
C       -1.0746132122    0.8124522398    0.5966645320
C       -1.8156452710   -0.3820725696    0.5123471617
N        0.3171301181    0.8729670542    0.5408271754
C        1.2644866674   -0.1004861537    0.3807324853
O        1.0157479830   -1.2847862104    0.2716480589
C        2.6790593435    0.4478195335    0.3947335211
C        3.8353221511   -0.5351541585    0.4849528378
C        3.6080828849    0.2424389406   -0.7900287957
C        3.1763257625   -0.4685399539   -2.0686723981
H        2.8015874826    1.3770443379    0.9434922510
H        4.2984862947    1.0573831614   -0.9972972629
H       -4.8963949026    1.0124943610    0.7861916816
H       -3.4479583182    3.0428233258    0.9219739757
H       -1.3225794490   -1.3377416192    0.3977283185
H        0.6465278300    1.8154614865    0.6199797976
H        4.6885965059   -0.2581663174    1.0990435753
H        3.6071655913   -1.5994307367    0.4829848617
H        2.5146994153   -1.3195213235   -1.8703875170
H        2.6472651000    0.2213690405   -2.7365705195
H        4.0502653434   -0.8537052295   -2.6069822148
C       -4.0557769904   -1.6028605198    0.4921319482
H       -4.6585828232   -1.7328176077    1.3984220524
H       -4.7383702204   -1.5591521998   -0.3644739579
H       -3.4322033032   -2.4971482093    0.3758240542
28   
Iteration 8 Energy -0.17823249
C       -3.2158037975   -0.3396134662    0.5765826290
C       -3.8159246918    0.9151942093    0.7268309658
C       -3.0044220365    2.0533518512    0.8044193088
N       -1.6631279771    2.0026309943    0.7408871720
C       -1.0738748821    0.8124753447    0.5969141956
C       -1.8151962765   -0.3814219454    0.5114770424
N        0.3179013347    0.8702002747    0.5420717690
C        1.2643044916   -0.1037408304    0.3796656182
O        1.0182281193   -1.2883909339    0.2668393191
C        2.6782178332    0.4442508908    0.3961850542
C        3.8426837539   -0.5287522764    0.4869619620
C        3.6049051989    0.2407801311   -0.7902475018
C        3.1678505580   -0.4704749566   -2.0661871166
H        2.7977302312    1.3721262661    0.9479665869
H        4.2930136227    1.0567195136   -1.0013220785
H       -4.8944805037    1.0149425644    0.7838283209
H       -3.4441482473    3.0424361366    0.9217367232
H       -1.3209018873   -1.3366115133    0.3968268245
H        0.6488264144    1.8121922753    0.6235153835
H        4.6946355535   -0.2471196607    1.1007083437
H        3.6229552870   -1.5947587893    0.4862403796
H        2.5129542129   -1.3252380732   -1.8607748364
H        2.6283502212    0.2166157207   -2.7286006430
H        4.0393764713   -0.8496514378   -2.6125835814
C       -4.0555007804   -1.6019362595    0.4888289294
H       -4.6590246984   -1.7322395054    1.3945840714
H       -4.7374564503   -1.5575599564   -0.3682434965
H       -3.4320703270   -2.4962041985    0.3724857022
28   
Iteration 9 Energy -0.17824848
C       -3.2160704442   -0.3392218791    0.5778540352
C       -3.8175104006    0.9152491074    0.7247958936
C       -3.0061825430    2.0537089108    0.8000358484
N       -1.6648196354    2.0014723769    0.7370808465
C       -1.0737284777    0.8117800330    0.5960659994
C       -1.8154960694   -0.3821568433    0.5133475566
N        0.3181058958    0.8707332354    0.5420183854
C        1.2645413190   -0.1031868871    0.3794070220
O        1.0168559013   -1.2874305590    0.2662857148
C        2.6787767501    0.4442070714    0.3964455600
C        3.8402832583   -0.5324051586    0.4861117075
C        3.6066045341    0.2412855270   -0.7894302131
C        3.1698215534   -0.4665409290   -2.0675549507
H        2.8002099661    1.3687715323    0.9533335748
H        4.2983623429    1.0548671354   -0.9976159366
H       -4.8961416953    1.0145091752    0.7810376312
H       -3.4455685290    3.0432436483    0.9148207024
H       -1.3221049543   -1.3380563801    0.4013534253
H        0.6485379407    1.8128775208    0.6231727226
H        4.6930440249   -0.2536182582    1.1000538398
H        3.6191743292   -1.5981362896    0.4815475456
H        2.5181971445   -1.3244635820   -1.8651345145
H        2.6270183887    0.2214218663   -2.7263606961
H        4.0418309357   -0.8405159804   -2.6167636369
C       -4.0554865280   -1.6019277862    0.4928139705
H       -4.6593646532   -1.7301536487    1.3986309371
H       -4.7370993962   -1.5597593304   -0.3646442472
H       -3.4317902204   -2.4963512820    0.3788883126
28   
Iteration 10 Energy -0.17826381
C       -3.2166295858   -0.3398595209    0.5804401715
C       -3.8177481622    0.9156938060    0.7188922586
C       -3.0069604377    2.0549280472    0.7885255813
N       -1.6654593599    2.0022284922    0.7277560179
C       -1.0733522553    0.8121084431    0.5942672104
C       -1.8158963166   -0.3819454110    0.5182222046
N        0.3186491033    0.8710545973    0.5424252326
C        1.2632429999   -0.1043735568    0.3779471170
O        1.0152754518   -1.2882469039    0.2620120234
C        2.6779443818    0.4419818599    0.3976739970
C        3.8349014825   -0.5403479674    0.4843240517
C        3.6085091854    0.2425982142   -0.7869596463
C        3.1725173708   -0.4570222281   -2.0701118956
H        2.8020786418    1.3591046635    0.9661297357
H        4.3063922647    1.0526242239   -0.9884013983
H       -4.8964346223    1.0153228896    0.7730482109
H       -3.4467024544    3.0450334924    0.8968631149
H       -1.3226054005   -1.3386187357    0.4132282619
H        0.6498816122    1.8128288284    0.6237920958
H        4.6886700718   -0.2670468869    1.0993672688
H        3.6123314819   -1.6057332689    0.4709675207
H        2.5323713498   -1.3249300020   -1.8739328116
H        2.6178014564    0.2314853336   -2.7183530933
H        4.0457371406   -0.8146371261   -2.6282317319
C       -4.0556998281   -1.6032604849    0.5020370314
H       -4.6607858266   -1.7259972418    1.4078118712
H       -4.7362385272   -1.5664104412   -0.3565233127
H       -3.4317904741   -2.4983608648    0.3943798372
28   
Iteration 11 Energy -0.17827308
C       -3.2174670655   -0.3389454004    0.5830409750
C       -3.8193968674    0.9173349501    0.7113642283
C       -3.0063193845    2.0552250753    0.7746562136
N       -1.6648485179    2.0002977803    0.7169334667
C       -1.0741094029    0.8085401497    0.5922814629
C       -1.8167951274   -0.3858569549    0.5236562140
N        0.3180780721    0.8658457968    0.5436743650
C        1.2638971036   -0.1076901978    0.3752244001
O        1.0125202604   -1.2902942607    0.2531250909
C        2.6788440325    0.4376371545    0.3997726091
C        3.8351410078   -0.5459232195    0.4825762529
C        3.6112729705    0.2444116320   -0.7843853259
C        3.1743347591   -0.4462388599   -2.0719490660
H        2.8036959479    1.3476521725    0.9794077864
H        4.3119658016    1.0534508603   -0.9799621207
H       -4.8981016437    1.0182693670    0.7626617253
H       -3.4445072307    3.0468219017    0.8753870626
H       -1.3249659769   -1.3441728643    0.4272137170
H        0.6492723223    1.8074658943    0.6272987404
H        4.6887607312   -0.2765803112    1.0995740305
H        3.6138221147   -1.6114380140    0.4610925733
H        2.5516576782   -1.3277574255   -1.8799658105
H        2.6005734146    0.2404966648   -2.7053295583
H        4.0476958704   -0.7811233956   -2.6437809815
C       -4.0580048487   -1.6016996201    0.5121683506
H       -4.6649687271   -1.7171080963    1.4176487417
H       -4.7369800338   -1.5700708474   -0.3478370324
H       -3.4350665256   -2.4983478652    0.4120488080
28   
Iteration 12 Energy -0.17828844
C       -3.2166994882   -0.3395705491    0.5838047330
C       -3.8176327450    0.9179084908    0.7046890651
C       -3.0052254531    2.0564742207    0.7645894547
N       -1.6636588322    2.0004568967    0.7101100255
C       -1.0725372635    0.8081919893    0.5918815078
C       -1.8159141147   -0.3860014231    0.5278562179
N        0.3197831074    0.8646766242    0.5467874352
C        1.2641558774   -0.1095326893    0.3741984974
O        1.0129475117   -1.2913872090    0.2445044326
C        2.6796138136    0.4340120159    0.4026357417
C        3.8353696883   -0.5505693605    0.4812457360
C        3.6112163343    0.2448481195   -0.7824553291
C        3.1704849029   -0.4394600450   -2.0719103128
H        2.8052529474    1.3412045481    0.9865267346
H        4.3116313610    1.0547337041   -0.9755451089
H       -4.8964273878    1.0193618116    0.7530999579
H       -3.4435775187    3.0485435433    0.8598007024
H       -1.3238326701   -1.3448323009    0.4377985659
H        0.6518735138    1.8057171811    0.6334565725
H        4.6888854217   -0.2853938034    1.1001875810
H        3.6124526484   -1.6156526885    0.4557912159
H        2.5588250460   -1.3289573182   -1.8807109593
H        2.5835900757    0.2461857955   -2.6943507516
H        4.0420579223   -0.7603600160   -2.6543899568
C       -4.0573675503   -1.6024718439    0.5173208484
H       -4.6663077743   -1.7133192859    1.4220430242
H       -4.7345333451   -1.5748800131   -0.3442492013
H       -3.4344253092   -2.4997244019    0.4228805429
