28
Properties=species:S:1:pos:R:3 Iteration=T 30=T Energy=T -611.65001736=T pbc="F F F"
C       -3.12218566      -0.34543782       0.22299051
C       -3.61008781       0.90414169      -0.17481940
C       -2.71589453       1.95542037      -0.30827888
N       -1.40694314       1.85344510      -0.07862460
C       -0.94969916       0.65911869       0.30120733
C       -1.75894935      -0.47031955       0.46580868
N        0.42849567       0.64971175       0.51361914
C        1.24074422      -0.37886564       0.91903663
O        0.85030019      -1.51512063       1.12586319
C        2.67841065       0.04508246       1.04640009
C        3.76550128      -0.87718199       0.60774627
C        3.48525269       0.36542162      -0.19352104
C        2.87624779       0.25240463      -1.56779303
H        2.86743886       0.66762084       1.92017547
H        4.20020882       1.17825081      -0.07849036
H       -4.66694025       1.05307348      -0.37680560
H       -3.06389156       2.93952258      -0.61750810
H       -1.31171027      -1.40632437       0.77417401
H        0.85778564       1.54832128       0.33655899
H        4.66908756      -0.92806367       1.20718937
H        3.44627859      -1.82715879       0.18728067
H        2.17121054      -0.58428709      -1.62259417
H        2.33293093       1.16170735      -1.85041950
H        3.65515794       0.08059054      -2.31881255
C       -4.04374755      -1.51816060       0.38743247
H       -4.79179628      -1.31930093       1.16346802
H       -4.58821425      -1.72239027      -0.54139470
H       -3.49498650      -2.42101590       0.66770531
