28
Properties=species:S:1:pos:R:3 Iteration=T 33=T Energy=T -611.65139351=T pbc="F F F"
C       -3.20221173      -0.15156087       0.63246027
C       -3.88113915      -1.03688979      -0.21133018
C       -3.14971009      -1.76083037      -1.14063790
N       -1.82816165      -1.66673319      -1.28417644
C       -1.18732398      -0.81937635      -0.47617078
C       -1.82282234      -0.04072205       0.49702719
N        0.18749464      -0.79541848      -0.70892281
C        1.16217300      -0.04868762      -0.09307030
O        0.92268458       0.76415957       0.78792666
C        2.51187316      -0.26397536      -0.69064359
C        3.16728544       0.97731819      -1.28223691
C        3.78441205       0.31120687      -0.10429757
C        3.86503927       0.96632067       1.25057265
H        2.62524578      -1.17903675      -1.26750506
H        4.64881605      -0.30792010      -0.34183272
H       -4.95819218      -1.15970855      -0.14289255
H       -3.64698996      -2.45952389      -1.81130724
H       -1.23681132       0.62435468       1.11764490
H        0.45689695      -1.42643144      -1.45174333
H        3.63010975       0.89085513      -2.26086474
H        2.63923604       1.90986088      -1.10126715
H        2.97760078       1.56497861       1.45592510
H        3.94915149       0.21261130       2.04105441
H        4.75316018       1.60678051       1.29889026
C       -3.94150006       0.66290921       1.65341518
H       -4.62305422       1.37043078       1.16679302
H       -4.54955248       0.02221189       2.30160677
H       -3.25370786       1.23302004       2.28318020
