28
Properties=species:S:1:pos:R:3 Iteration=T 27=T Energy=T -0.17629807=T pbc="F F F"
C       -3.09476644      -0.24392386       0.77865394
C       -3.58232115       0.18876530      -0.45977703
C       -2.67360041       0.49272801      -1.48159910
N       -1.34203814       0.38396746      -1.33348326
C       -0.86407447      -0.05140876      -0.16473099
C       -1.70410945      -0.35515913       0.92087542
N        0.52339269      -0.10701950      -0.07967807
C        1.32745878      -0.89116057       0.69692019
O        0.89499058      -1.64653041       1.54266533
C        2.82535711      -0.76693196       0.46033105
C        3.34140327      -0.83064541      -0.96928890
C        3.52747613       0.43589801      -0.16724439
C        2.85530002       1.74403874      -0.58121505
H        3.40784071      -1.31469144       1.19543304
H        4.52582624       0.62497416       0.22297275
H       -4.64758843       0.29536325      -0.63378557
H       -3.02408023       0.83987949      -2.45219410
H       -1.28280515      -0.67243153       1.86696764
H        0.97326479       0.42442145      -0.79679600
H        4.22039363      -1.44211675      -1.16004599
H        2.61758240      -0.82657235      -1.78152573
H        2.11613438       1.60550642      -1.37832363
H        2.36318801       2.22069601       0.27535411
H        3.60279873       2.44836861      -0.96568655
C       -4.04070643      -0.57459091       1.91952024
H       -4.64128516       0.30021371       2.19443378
H       -4.72747762      -1.38014493       1.63475929
H       -3.49755409      -0.90129094       2.81409153
