28   
Iteration 0 Energy -0.17177602
C       -3.0850797600   -0.0083143400    0.7802318800
C       -3.5921012100    0.2950105300   -0.4880728600
C       -2.7156246500    0.3358266200   -1.5616138500
N       -1.4066634100    0.1047295600   -1.4629671600
C       -0.9305874900   -0.1829105000   -0.2499125400
C       -1.7220076100   -0.2542099300    0.9012776500
N        0.4479056400   -0.3977158400   -0.2544645500
C        1.2706401500   -0.7483474100    0.7868886900
O        0.8639875100   -0.9482380600    1.9213136400
C        2.7305406600   -0.8523260100    0.4855442100
C        3.3182673700   -1.0286760900   -0.8956487300
C        3.5582922700    0.2479485200   -0.1637355400
C        2.9918670200    1.5690763800   -0.6153607400
H        3.2233781600   -1.3844223800    1.2927211500
H        4.5451457900    0.3399124300    0.2867320800
H       -4.6499867500    0.4930467200   -0.6348472800
H       -3.0784894800    0.5671412300   -2.5616056100
H       -1.2622376300   -0.5014354800    1.8489285800
H        0.8295529800   -0.3357070200   -1.1876008200
H        4.1283438500   -1.7440998300   -1.0026229000
H        2.6496775800   -1.0095538600   -1.7539072000
H        2.0048647100    1.4771015900   -1.0755203700
H        2.8928401400    2.2592078200    0.2294543600
H        3.6594804800    2.0306567500   -1.3512790900
C       -3.9861691900   -0.0701588100    1.9784450700
H       -4.4800991000    0.8937768100    2.1466389100
H       -4.7755540800   -0.8168376600    1.8356792300
H       -3.4301795800   -0.3302744500    2.8828978700
28   
Iteration 1 Energy -0.17419500
C       -3.1104453407    0.0021645614    0.7745429012
C       -3.5629529874    0.3055062479   -0.5132110180
C       -2.6413092141    0.3319015907   -1.5501245354
N       -1.3387531955    0.0862434556   -1.3945648438
C       -0.9032482484   -0.2029904077   -0.1653239779
C       -1.7539206044   -0.2578968421    0.9488362034
N        0.4761503478   -0.4303779978   -0.1316380243
C        1.3511813589   -0.7849780766    0.8669771057
O        1.0420376461   -1.0073939912    2.0254165310
C        2.7914104841   -0.8666815795    0.4670663968
C        3.2830896976   -1.0180843768   -0.9548644242
C        3.5575258972    0.2538988551   -0.2217148299
C        2.9431188420    1.5745259931   -0.6153267368
H        3.3466194487   -1.4021797446    1.2305867371
H        4.5717600264    0.3558131260    0.1605177368
H       -4.6114266617    0.5144663196   -0.7040590291
H       -2.9593525626    0.5628128437   -2.5653738982
H       -1.3482917217   -0.5044796550    1.9193527260
H        0.8494138361   -0.3651633560   -1.0662998264
H        4.0930737765   -1.7209099259   -1.1280333784
H        2.5560417406   -0.9967342254   -1.7639552437
H        1.9279507162    1.4749167140   -1.0081108084
H        2.8937607306    2.2519210620    0.2442621371
H        3.5520592853    2.0555287196   -1.3889104041
C       -4.0603315340   -0.0450770331    1.9376445353
H       -4.5497477741    0.9249607533    2.0824033711
H       -4.8513661724   -0.7840031178    1.7662350277
H       -3.5440434270   -0.3075026184    2.8652636182
28   
Iteration 2 Energy -0.17693429
C       -3.1335215711   -0.0139447966    0.7844968499
C       -3.5762485738    0.2855026752   -0.5075562272
C       -2.6706523180    0.3416729043   -1.5700937454
N       -1.3586017250    0.1140208536   -1.4019675148
C       -0.8861061302   -0.1799606931   -0.1858884049
C       -1.7592509479   -0.2454025759    0.9173548641
N        0.4925748557   -0.3915680497   -0.1439593362
C        1.3476515308   -0.7330771473    0.8700794554
O        0.9599429788   -0.9257644214    2.0051752433
C        2.8100691140   -0.8677613838    0.4974095668
C        3.2589978865   -1.0465460833   -0.9438541084
C        3.5880856581    0.2307526321   -0.2134855982
C        3.0000119531    1.5733817155   -0.6266234927
H        3.3767900625   -1.4090301496    1.2500095342
H        4.6122859356    0.3432166077    0.1371345288
H       -4.6271190175    0.4774699789   -0.6955873174
H       -3.0022334834    0.5749321052   -2.5805850585
H       -1.3754311705   -0.4783452669    1.8999968440
H        0.8981058366   -0.2983847348   -1.0550066100
H        4.0586411118   -1.7601035595   -1.1295693564
H        2.5160135366   -1.0065060095   -1.7364555609
H        1.9837121517    1.5003202606   -1.0245704755
H        2.9743586903    2.2611938049    0.2270643379
H        3.6185773042    2.0332187359   -1.4064282166
C       -4.0868929585   -0.0823450839    1.9599295995
H       -4.5884672940    0.8806571465    2.1106238026
H       -4.8624921598   -0.8378327842    1.7885447555
H       -3.5687965376   -0.3395597037    2.8914053159
28   
Iteration 3 Energy -0.17726366
C       -3.0969937517   -0.0210298779    0.7619005756
C       -3.5822831596    0.2867517844   -0.5144512470
C       -2.6627289672    0.3525241151   -1.5717160217
N       -1.3457123254    0.1312873918   -1.4077510378
C       -0.8820700445   -0.1673740288   -0.1900946003
C       -1.7220815013   -0.2529738519    0.9391853010
N        0.4942639439   -0.3735814550   -0.1452149922
C        1.3210128498   -0.7081776943    0.8902653128
O        0.9497260413   -0.8912445368    2.0296383384
C        2.7932887159   -0.8703261865    0.5209684181
C        3.2130844549   -1.0630644568   -0.9340571449
C        3.5698363002    0.2179510503   -0.2075945946
C        2.9891176834    1.5692993936   -0.6336792405
H        3.3699513502   -1.4136669025    1.2647150083
H        4.6020047802    0.3399274666    0.1150183398
H       -4.6354912202    0.4725815548   -0.6917577425
H       -2.9925538338    0.5906704424   -2.5816785385
H       -1.3487453849   -0.4844016555    1.9272367356
H        0.9253996291   -0.2535038705   -1.0370527390
H        4.0134314031   -1.7741616205   -1.1291760974
H        2.4626536540   -1.0150132781   -1.7184851381
H        1.9743249055    1.5027526536   -1.0378293568
H        2.9704788939    2.2633385156    0.2157249190
H        3.6117072800    2.0208220462   -1.4155841400
C       -4.0587328716   -0.0998990462    1.9391155164
H       -4.5624811788    0.8612289788    2.0945071795
H       -4.8275931266   -0.8612491730    1.7629069871
H       -3.5428097450   -0.3592607362    2.8725332826
28   
Iteration 4 Energy -0.17789000
C       -3.1152841382   -0.0222063856    0.7715224111
C       -3.5867948808    0.2859965383   -0.5097295461
C       -2.6697025324    0.3534224915   -1.5673067552
N       -1.3523403706    0.1338843761   -1.4127595578
C       -0.8917208691   -0.1656260155   -0.1948233451
C       -1.7385052350   -0.2505744005    0.9278991240
N        0.4848184787   -0.3723972298   -0.1454195506
C        1.3230917969   -0.7075153835    0.8817509445
O        0.9482624081   -0.8904703749    2.0205462172
C        2.7960197942   -0.8674048809    0.5180879788
C        3.2321126445   -1.0620402974   -0.9322574514
C        3.5806859419    0.2187001477   -0.2065937495
C        3.0063302977    1.5685931001   -0.6404186324
H        3.3644040483   -1.4099805472    1.2682212501
H        4.6102635763    0.3372079437    0.1256361935
H       -4.6394743313    0.4726014381   -0.6911926729
H       -3.0032980215    0.5928653868   -2.5756906366
H       -1.3554816450   -0.4841903959    1.9121111961
H        0.9112481529   -0.2498060322   -1.0404665747
H        4.0348253587   -1.7727386287   -1.1170203921
H        2.4912628558   -1.0163451174   -1.7260114589
H        1.9958210683    1.5022699266   -1.0545475183
H        2.9795995481    2.2644657578    0.2069747192
H        3.6376259744    2.0174163292   -1.4166741369
C       -4.0725460432   -0.1035933878    1.9503797062
H       -4.5767317223    0.8567404442    2.1091331178
H       -4.8415267730   -0.8650622628    1.7755208776
H       -3.5529605941   -0.3640055187    2.8807214891
28   
Iteration 5 Energy -0.17800380
C       -3.1145030875   -0.0163094579    0.7754392085
C       -3.5758431693    0.2956176957   -0.5077664929
C       -2.6661363118    0.3579286185   -1.5698373320
N       -1.3514317446    0.1285295419   -1.4126063594
C       -0.8887369833   -0.1735537032   -0.1960916899
C       -1.7401210697   -0.2530254502    0.9220786182
N        0.4875311228   -0.3873843866   -0.1506923300
C        1.3255260927   -0.7244583889    0.8772513015
O        0.9586196332   -0.9053800758    2.0194353497
C        2.7955494241   -0.8705289687    0.5128192331
C        3.2498985750   -1.0587674136   -0.9309048441
C        3.5729716360    0.2249074641   -0.2035875009
C        2.9803762567    1.5633703651   -0.6381229419
H        3.3591988657   -1.4094030687    1.2687411933
H        4.6000087069    0.3488913880    0.1346651944
H       -4.6277639331    0.4896618860   -0.6877847221
H       -2.9995041130    0.5994700440   -2.5777698885
H       -1.3491483066   -0.4948711861    1.9012001251
H        0.9089777680   -0.2654649549   -1.0497906528
H        4.0639572249   -1.7574235027   -1.1098649776
H        2.5182850278   -1.0210644557   -1.7339919621
H        1.9763515841    1.4748490260   -1.0639969154
H        2.9275092393    2.2554188920    0.2108530872
H        3.6127539433    2.0270143066   -1.4045057777
C       -4.0683796099   -0.0925572201    1.9544258008
H       -4.5661352713    0.8706302284    2.1160012297
H       -4.8433004657   -0.8481459384    1.7806761267
H       -3.5465062469   -0.3577442725    2.8813212903
28   
Iteration 6 Energy -0.17803538
C       -3.1195822127   -0.0155692158    0.7745364569
C       -3.5868768344    0.3008579535   -0.5053976116
C       -2.6713209040    0.3600554962   -1.5622529146
N       -1.3568530350    0.1271398345   -1.4091276031
C       -0.8949088472   -0.1779138316   -0.1932862232
C       -1.7466393907   -0.2573437384    0.9241463771
N        0.4807337945   -0.3951448880   -0.1482061060
C        1.3277704159   -0.7302070200    0.8728044998
O        0.9519894952   -0.9070932325    2.0127724295
C        2.7984982483   -0.8693750477    0.5109790679
C        3.2634042468   -1.0583688404   -0.9287639646
C        3.5771278024    0.2277499749   -0.2022069519
C        2.9862725878    1.5639913791   -0.6449882453
H        3.3581210432   -1.4071913768    1.2705652841
H        4.6030591647    0.3521228816    0.1392683489
H       -4.6382960970    0.4983291684   -0.6849503825
H       -3.0021614518    0.6038729056   -2.5704646640
H       -1.3556467756   -0.5042541254    1.9020277663
H        0.8980605238   -0.2690869901   -1.0489792317
H        4.0832832899   -1.7515599543   -1.1019195254
H        2.5393968939   -1.0236516925   -1.7389854099
H        1.9915749875    1.4726155774   -1.0911983759
H        2.9138902326    2.2541544540    0.2040227562
H        3.6316274401    2.0317916460   -1.3978642672
C       -4.0710658479   -0.0919693908    1.9547847335
H       -4.5658688206    0.8721296261    2.1198955218
H       -4.8483581968   -0.8450906845    1.7810219333
H       -3.5472269273   -0.3607839374    2.8793596957
28   
Iteration 7 Energy -0.17809823
C       -3.1157002837   -0.0170688425    0.7759134271
C       -3.5789247786    0.3007532149   -0.5054562678
C       -2.6647152813    0.3629883035   -1.5640880127
N       -1.3496571432    0.1307791707   -1.4125604546
C       -0.8925621196   -0.1760123484   -0.1953756233
C       -1.7417634794   -0.2581975503    0.9242780684
N        0.4826184234   -0.3938734259   -0.1476245199
C        1.3244357919   -0.7260658981    0.8781087520
O        0.9523376568   -0.9034597805    2.0189153117
C        2.7954373737   -0.8684939344    0.5153406518
C        3.2528094751   -1.0605902292   -0.9265940339
C        3.5725705556    0.2266804552   -0.2028845498
C        2.9828435691    1.5637661498   -0.6477194136
H        3.3577735910   -1.4066717020    1.2727956121
H        4.6004628178    0.3519123913    0.1322474513
H       -4.6301065564    0.4980501932   -0.6859192734
H       -2.9972421768    0.6085836124   -2.5713191585
H       -1.3511469651   -0.5057886747    1.9021546383
H        0.9047254251   -0.2669673876   -1.0455338556
H        4.0720674254   -1.7538567687   -1.1030758499
H        2.5250591066   -1.0251504915   -1.7333590650
H        1.9908792036    1.4732080738   -1.1002147879
H        2.9059406306    2.2528679294    0.2018629651
H        3.6320232048    2.0328847802   -1.3965515094
C       -4.0699196215   -0.0952275949    1.9548562187
H       -4.5650237722    0.8687037889    2.1200984731
H       -4.8465791890   -0.8484223879    1.7784693355
H       -3.5486379515   -0.3651242376    2.8808288537
28   
Iteration 8 Energy -0.17813862
C       -3.1134760894   -0.0165852822    0.7752267098
C       -3.5768092281    0.3056794240   -0.5049504069
C       -2.6614718556    0.3704361174   -1.5626481454
N       -1.3465180016    0.1365686508   -1.4109731975
C       -0.8876838624   -0.1747185174   -0.1954597601
C       -1.7395385046   -0.2591018758    0.9222936591
N        0.4872571048   -0.3944287862   -0.1484071542
C        1.3256813119   -0.7228566653    0.8812510843
O        0.9538924020   -0.8980534358    2.0223710937
C        2.7965055588   -0.8679273302    0.5192179187
C        3.2515219153   -1.0639890758   -0.9227802088
C        3.5698401747    0.2265039527   -0.2035563684
C        2.9737455193    1.5595567785   -0.6520446868
H        3.3604420028   -1.4039295808    1.2770745541
H        4.5985552023    0.3561461501    0.1273246029
H       -4.6277180526    0.5043847849   -0.6852740342
H       -2.9931470533    0.6195568055   -2.5692979839
H       -1.3514300129   -0.5098783767    1.9003109577
H        0.9112652821   -0.2688285987   -1.0454444529
H        4.0729433902   -1.7546285773   -1.0997609254
H        2.5221314461   -1.0317571226   -1.7281760108
H        1.9886280154    1.4594579360   -1.1178782153
H        2.8787687971    2.2451397515    0.1985925437
H        3.6278577996    2.0374364923   -1.3910089633
C       -4.0676517794   -0.0980781532    1.9541949398
H       -4.5620288710    0.8656723647    2.1226616162
H       -4.8448613132   -0.8501262069    1.7753070039
H       -3.5466962988   -0.3714449197    2.8794271121
28   
Iteration 9 Energy -0.17820792
C       -3.1068359701   -0.0167701094    0.7774255163
C       -3.5612049942    0.3233849300   -0.5011277728
C       -2.6479354193    0.3988598470   -1.5599735195
N       -1.3355500596    0.1552368187   -1.3987685700
C       -0.8814183378   -0.1727688813   -0.1855364411
C       -1.7352408596   -0.2683989900    0.9302475945
N        0.4923706508   -0.4005920463   -0.1399929586
C        1.3326348082   -0.7156108176    0.8923315025
O        0.9630370191   -0.8800619508    2.0355785924
C        2.8020959038   -0.8638813879    0.5277619611
C        3.2525803527   -1.0741643094   -0.9131268358
C        3.5630826262    0.2279975442   -0.2105983820
C        2.9485021865    1.5473547073   -0.6736373196
H        3.3712851989   -1.3908511741    1.2880716213
H        4.5937008044    0.3712507378    0.1085126813
H       -4.6108711971    0.5289877797   -0.6807827276
H       -2.9751848924    0.6620056710   -2.5645059471
H       -1.3542209712   -0.5340268446    1.9070338975
H        0.9166550073   -0.2784757969   -1.0372181836
H        4.0825893358   -1.7549184279   -1.0886454911
H        2.5204048774   -1.0557139467   -1.7164200041
H        1.9932213206    1.4178774907   -1.1926841156
H        2.7855089617    2.2177843107    0.1788160655
H        3.6235324863    2.0565765300   -1.3717713465
C       -4.0688779758   -0.1079838299    1.9493441374
H       -4.5591858286    0.8562660163    2.1266462967
H       -4.8489820528   -0.8534285359    1.7559532552
H       -3.5556878102   -0.3957286705    2.8746596202
28   
Iteration 10 Energy -0.17830769
C       -3.1057008199   -0.0175723729    0.7782759460
C       -3.5574473810    0.3468062069   -0.4946243625
C       -2.6372129873    0.4323552533   -1.5465654515
N       -1.3259702447    0.1792856340   -1.3912838998
C       -0.8758258857   -0.1695332314   -0.1825019278
C       -1.7355351508   -0.2792442429    0.9272948789
N        0.4960873358   -0.4078721157   -0.1362990320
C        1.3354859447   -0.7055223245    0.9018481803
O        0.9694126353   -0.8514354247    2.0487068281
C        2.8046834853   -0.8557278750    0.5385099319
C        3.2589718430   -1.0869434828   -0.8973824922
C        3.5575738755    0.2299863025   -0.2166905043
C        2.9289358212    1.5340797955   -0.7028369778
H        3.3754454992   -1.3690584687    1.3068897340
H        4.5876599389    0.3872291542    0.0975261241
H       -4.6052395072    0.5617380640   -0.6743564867
H       -2.9602996676    0.7133329222   -2.5476082262
H       -1.3579624056   -0.5656653619    1.8995715853
H        0.9217164586   -0.2914085079   -1.0336617253
H        4.0984282026   -1.7586521315   -1.0624525762
H        2.5289456016   -1.0880708913   -1.7029024617
H        2.0179432761    1.3760725741   -1.2900030849
H        2.6821524381    2.1846608816    0.1448717738
H        3.6310711131    2.0781787689   -1.3457533113
C       -4.0688067714   -0.1240490513    1.9478772702
H       -4.5538555030    0.8396403394    2.1419065967
H       -4.8529897854   -0.8615669010    1.7410744534
H       -3.5576619252   -0.4308369302    2.8681623948
28   
Iteration 11 Energy -0.17836724
C       -3.1055734561   -0.0200884776    0.7788076045
C       -3.5530963045    0.3649556376   -0.4896107093
C       -2.6273794347    0.4622624007   -1.5354224990
N       -1.3173222523    0.2037576111   -1.3823689037
C       -0.8732399511   -0.1621489746   -0.1765916010
C       -1.7367604658   -0.2877912435    0.9280696912
N        0.4972940698   -0.4073365044   -0.1283633078
C        1.3412709800   -0.6906921246    0.9102384356
O        0.9745135948   -0.8156543983    2.0596301939
C        2.8092659402   -0.8469392136    0.5454845274
C        3.2637024011   -1.0990183416   -0.8864893562
C        3.5572735858    0.2297485491   -0.2270333223
C        2.9168653587    1.5222896807   -0.7272987293
H        3.3822598482   -1.3454188491    1.3218720375
H        4.5856302719    0.3975827058    0.0874354260
H       -4.5996209047    0.5856522019   -0.6699954690
H       -2.9463056258    0.7582844185   -2.5334545718
H       -1.3615235557   -0.5920134554    1.8959024972
H        0.9213308125   -0.2990799337   -1.0277094965
H        4.1049170805   -1.7710997231   -1.0403320113
H        2.5319014518   -1.1186875309   -1.6901823963
H        2.0339122092    1.3440082816   -1.3509281739
H        2.6195970414    2.1593303636    0.1144890752
H        3.6295721917    2.0893114101   -1.3379392396
C       -4.0719935625   -0.1421045551    1.9438426058
H       -4.5549963708    0.8197302525    2.1516765428
H       -4.8577011172   -0.8740711496    1.7235987226
H       -3.5637881180   -0.4645627608    2.8602655812
28   
Iteration 12 Energy -0.17841454
C       -3.1086955702   -0.0277671484    0.7798490674
C       -3.5523409464    0.3848896748   -0.4812225885
C       -2.6231492444    0.5028357117   -1.5216764930
N       -1.3141642625    0.2398319621   -1.3694349638
C       -0.8734980338   -0.1491155631   -0.1696805883
C       -1.7408611999   -0.2997812146    0.9284573542
N        0.4960158356   -0.3997547858   -0.1225891266
C        1.3430181358   -0.6628149914    0.9191542225
O        0.9780417110   -0.7585517423    2.0722040537
C        2.8107194385   -0.8303029977    0.5560226788
C        3.2667380159   -1.1159398781   -0.8691045950
C        3.5619494098    0.2273377084   -0.2406779138
C        2.9208088858    1.5107396524   -0.7633678188
H        3.3833046512   -1.3080660792    1.3455637449
H        4.5870028498    0.4029665893    0.0802971115
H       -4.5981927871    0.6102037116   -0.6599804303
H       -2.9383523092    0.8192106535   -2.5146318510
H       -1.3683647614   -0.6273277142    1.8897622138
H        0.9178417575   -0.3036633893   -1.0244791189
H        4.1038442061   -1.7974827751   -1.0019597578
H        2.5336952528   -1.1586429548   -1.6707394524
H        2.0655896387    1.3189354364   -1.4208104407
H        2.5800124306    2.1411782121    0.0668652348
H        3.6474047306    2.0907526889   -1.3447085824
C       -4.0788251490   -0.1744531912    1.9387901414
H       -4.5618230548    0.7829531930    2.1661607262
H       -4.8643996546   -0.9008034762    1.7002851707
H       -3.5733140171   -0.5171613319    2.8492450703
28   
Iteration 13 Energy -0.17845634
C       -3.1092996406   -0.0359389497    0.7797270680
C       -3.5478338354    0.4031476823   -0.4742728344
C       -2.6153207309    0.5425324315   -1.5091821953
N       -1.3068913124    0.2766290468   -1.3582823599
C       -0.8713263428   -0.1344314539   -0.1641512421
C       -1.7418967871   -0.3105834026    0.9273378873
N        0.4970127388   -0.3900278808   -0.1157851559
C        1.3453519079   -0.6325757989    0.9297928434
O        0.9800460146   -0.6992606541    2.0849641416
C        2.8118205296   -0.8136418198    0.5680072238
C        3.2636650781   -1.1321700627   -0.8513327324
C        3.5645184841    0.2237593556   -0.2538532367
C        2.9212108218    1.4983030841   -0.7952139213
H        3.3855580790   -1.2713183564    1.3685376004
H        4.5877410557    0.4061231517    0.0692107724
H       -4.5930841017    0.6319773049   -0.6521117069
H       -2.9274971875    0.8786704036   -2.4965831479
H       -1.3713600301   -0.6603291113    1.8817316511
H        0.9183850266   -0.3066603059   -1.0192100804
H        4.0940892986   -1.8248949608   -0.9670129280
H        2.5259243585   -1.1940324296   -1.6473573460
H        2.0756253733    1.2939372532   -1.4612863316
H        2.5642465589    2.1326967829    0.0251902603
H        3.6509287329    2.0795561112   -1.3713704783
C       -4.0838297961   -0.2075876965    1.9315634130
H       -4.5680112477    0.7446369931    2.1774321152
H       -4.8681979296   -0.9289575124    1.6747014700
H       -3.5815690120   -0.5693534181    2.8364022135
28   
Iteration 14 Energy -0.17853285
C       -3.1112975979   -0.0553824937    0.7786753435
C       -3.5398229612    0.4460769183   -0.4553273363
C       -2.6012787710    0.6354855485   -1.4771984983
N       -1.2939982661    0.3612782523   -1.3301579332
C       -0.8670997645   -0.1028712663   -0.1525507235
C       -1.7448451234   -0.3373831598    0.9217062919
N        0.4983489621   -0.3711582345   -0.1044359838
C        1.3466785763   -0.5642056234    0.9511317675
O        0.9815504491   -0.5667186455    2.1083947885
C        2.8117406224   -0.7731119100    0.5976904250
C        3.2581193581   -1.1667535327   -0.8043190135
C        3.5690669503    0.2161102312   -0.2781266143
C        2.9257269001    1.4682646366   -0.8697852353
H        3.3860726258   -1.1854069948    1.4221362756
H        4.5892265162    0.4131072091    0.0460152779
H       -4.5837928707    0.6838724229   -0.6287539527
H       -2.9072971098    1.0184816773   -2.4493459511
H       -1.3792937848   -0.7390585978    1.8577981962
H        0.9195764605   -0.3151902475   -1.0099697842
H        4.0766670241   -1.8789528905   -0.8792011055
H        2.5144597806   -1.2689578803   -1.5905399930
H        2.0931792200    1.2350435789   -1.5428525990
H        2.5484290541    2.1245696891   -0.0760736178
H        3.6607834743    2.0383501581   -1.4502975213
C       -4.0945592029   -0.2849289672    1.9131153320
H       -4.5807084504    0.6538096912    2.2030418929
H       -4.8766682117   -0.9924939757    1.6143944958
H       -3.5989574502   -0.6916702323    2.8024287100
28   
Iteration 15 Energy -0.17862364
C       -3.1122398400   -0.0762923264    0.7757813435
C       -3.5330576095    0.4898261349   -0.4327966541
C       -2.5905474703    0.7307019010   -1.4407955911
N       -1.2841425879    0.4465139588   -1.3018916844
C       -0.8641347009   -0.0742565291   -0.1458170821
C       -1.7466182178   -0.3672445369    0.9093992483
N        0.4971403238   -0.3594644214   -0.0991196287
C        1.3420959051   -0.4978498495    0.9670178086
O        0.9716407936   -0.4385022401    2.1210605075
C        2.8078569950   -0.7286818604    0.6299691990
C        3.2537395743   -1.1965463811   -0.7492276704
C        3.5714973654    0.2100088783   -0.2949309996
C        2.9327370533    1.4363433172   -0.9434885241
H        3.3803270321   -1.0941424553    1.4775267227
H        4.5890585634    0.4211725483    0.0284315879
H       -4.5758709393    0.7379870162   -0.5982943499
H       -2.8923181049    1.1628904099   -2.3934511670
H       -1.3821833841   -0.8200122485    1.8229626077
H        0.9199098166   -0.3299533495   -1.0050155309
H        4.0626310322   -1.9229100593   -0.7805714462
H        2.5087118346   -1.3359932861   -1.5283333604
H        2.0894125655    1.1770525433   -1.5930466771
H        2.5714423041    2.1369405312   -0.1807471914
H        3.6660727954    1.9683945856   -1.5610991563
C       -4.1015744284   -0.3638642102    1.8918725697
H       -4.5881091146    0.5590988622    2.2281305492
H       -4.8826727524   -1.0541171923    1.5527445887
H       -3.6107981751   -0.8168945542    2.7613227034
28   
Iteration 16 Energy -0.17872824
C       -3.1110163356   -0.0855768091    0.7733079326
C       -3.5306791650    0.5100928750   -0.4215283255
C       -2.5887069989    0.7717037925   -1.4253519328
N       -1.2829080362    0.4792740904   -1.2943150258
C       -0.8642162338   -0.0691099962   -0.1506891674
C       -1.7462279554   -0.3843387656    0.8979216947
N        0.4935903324   -0.3676308125   -0.1049512332
C        1.3316683387   -0.4788406532    0.9690855682
O        0.9514224906   -0.4006379369    2.1186866631
C        2.8008413569   -0.7084081200    0.6477490972
C        3.2560503923   -1.2026916457   -0.7192784083
C        3.5681525606    0.2131988079   -0.2907041916
C        2.9357975392    1.4247823005   -0.9725130578
H        3.3685726277   -1.0562838837    1.5058621684
H        4.5855292645    0.4296239262    0.0297164147
H       -4.5727355250    0.7658628404   -0.5798877993
H       -2.8902061115    1.2270642238   -2.3672396055
H       -1.3787348109   -0.8576009190    1.8003029640
H        0.9200983026   -0.3490153085   -1.0091982846
H        4.0678629853   -1.9263812488   -0.7333494774
H        2.5186636595   -1.3541547504   -1.5033942034
H        2.0624677221    1.1605904963   -1.5787266065
H        2.6226660372    2.1693766432   -0.2304878790
H        3.6586745685    1.9072228313   -1.6410983156
C       -4.1000303439   -0.3951679442    1.8838088677
H       -4.5830639650    0.5215895115    2.2414279513
H       -4.8837105627   -1.0750985589    1.5300914619
H       -3.6098155645   -0.8692395852    2.7423454747
28   
Iteration 17 Energy -0.17876503
C       -3.1119317474   -0.1029349928    0.7692592419
C       -3.5162718356    0.5714662856   -0.3886286422
C       -2.5631615711    0.8829444995   -1.3675848086
N       -1.2614837525    0.5678263661   -1.2459928069
C       -0.8572092681   -0.0499270404   -0.1330471206
C       -1.7516234604   -0.4238283328    0.8844263340
N        0.4929891223   -0.3784732273   -0.0885539953
C        1.3300667758   -0.4234027488    0.9905625304
O        0.9461382353   -0.2839085835    2.1331719679
C        2.8006155993   -0.6583392320    0.6843985232
C        3.2623145186   -1.2236685517   -0.6522540639
C        3.5596445452    0.2170807273   -0.3026149727
C        2.9204660806    1.3787422602   -1.0599562426
H        3.3687657883   -0.9585164792    1.5600610978
H        4.5797676248    0.4545307330   -0.0067652982
H       -4.5541735899    0.8484900864   -0.5382295841
H       -2.8523463971    1.3979604545   -2.2822090338
H       -1.3924141195   -0.9607472508    1.7546899735
H        0.9192891930   -0.3936601491   -0.9928560414
H        4.0882938151   -1.9310694398   -0.6334842426
H        2.5322448638   -1.4192663009   -1.4335132026
H        2.0484935839    1.0720040201   -1.6481580782
H        2.6061387488    2.1685903979   -0.3669048762
H        3.6399929465    1.8187255245   -1.7606681379
C       -4.1122630906   -0.4718871300    1.8505892156
H       -4.5894666901    0.4253656804    2.2615451335
H       -4.8996563541   -1.1202666210    1.4491129043
H       -3.6332128014   -1.0036254377    2.6811968992
28   
Iteration 18 Energy -0.17882915
C       -3.1125243856   -0.0882516326    0.7717904690
C       -3.5258970849    0.5354280993   -0.4110117434
C       -2.5776201281    0.8068556310   -1.4058704009
N       -1.2748508875    0.4998385722   -1.2789474508
C       -0.8630657662   -0.0744856546   -0.1456102314
C       -1.7512971962   -0.4022885881    0.8932103438
N        0.4907809332   -0.3892970282   -0.0976137501
C        1.3277939142   -0.4799154811    0.9791079592
O        0.9432332663   -0.3936367896    2.1268067077
C        2.7993636348   -0.6957072892    0.6644106706
C        3.2665638734   -1.2001446110   -0.6948745790
C        3.5579404008    0.2245178149   -0.2811428886
C        2.9245409351    1.4125988887   -1.0012559018
H        3.3650609497   -1.0398166812    1.5253158213
H        4.5812979420    0.4466825940    0.0154253350
H       -4.5651018726    0.8043739366   -0.5663858542
H       -2.8720532011    1.2836679131   -2.3393394422
H       -1.3880412216   -0.8973297265    1.7858242114
H        0.9182725970   -0.3858966706   -1.0016018262
H        4.1022029329   -1.8961182811   -0.7125040135
H        2.5422872194   -1.3610065751   -1.4893976653
H        2.0415924939    1.1337780501   -1.5866793591
H        2.6300307483    2.1888110558   -0.2845769070
H        3.6411512960    1.8600257813   -1.7002314199
C       -4.1053532148   -0.4112748879    1.8741604329
H       -4.5816818116    0.5021816851    2.2488143814
H       -4.8943143905   -1.0772644306    1.5059644547
H       -3.6203054877   -0.9061199353    2.7238053829
28   
Iteration 19 Energy -0.17883752
C       -3.1140526862   -0.0909462087    0.7718198357
C       -3.5262605294    0.5382748281   -0.4084588660
C       -2.5769786777    0.8157088750   -1.4007116218
N       -1.2741628052    0.5095115645   -1.2738052123
C       -0.8635541349   -0.0694456362   -0.1424226422
C       -1.7526071241   -0.4041394074    0.8935026615
N        0.4905037572   -0.3837238806   -0.0957662569
C        1.3291864170   -0.4700894156    0.9801026680
O        0.9452027522   -0.3752747591    2.1274460997
C        2.8004976298   -0.6909819801    0.6656440016
C        3.2659474435   -1.2042764835   -0.6910877814
C        3.5610581146    0.2219809801   -0.2857969516
C        2.9284533993    1.4086746168   -1.0093125566
H        3.3663509980   -1.0293860937    1.5286859000
H        4.5833711397    0.4455137654    0.0133485319
H       -4.5655382878    0.8069075631   -0.5639228245
H       -2.8707778072    1.2966504589   -2.3322591615
H       -1.3902619419   -0.9034698661    1.7840398686
H        0.9165937731   -0.3813073474   -1.0004278686
H        4.0978377388   -1.9048338299   -0.7025245568
H        2.5392018057   -1.3707429881   -1.4821487785
H        2.0470231179    1.1281505481   -1.5960602118
H        2.6303552109    2.1852910127   -0.2945214601
H        3.6465259287    1.8568071621   -1.7063308219
C       -4.1082138116   -0.4205408193    1.8711943265
H       -4.5860659882    0.4905226714    2.2497158774
H       -4.8958752505   -1.0856238453    1.4986131353
H       -3.6237536680   -0.9190057679    2.7190374137
28   
Iteration 20 Energy -0.17883829
C       -3.1142350436   -0.0917172750    0.7716542144
C       -3.5256947598    0.5404100258   -0.4073464762
C       -2.5758807833    0.8197893069   -1.3985381575
N       -1.2732941226    0.5128118375   -1.2717916528
C       -0.8633926685   -0.0686993012   -0.1414659979
C       -1.7529659529   -0.4056433899    0.8931996846
N        0.4903859786   -0.3840084680   -0.0947642687
C        1.3292691599   -0.4681859225    0.9811003412
O        0.9452097980   -0.3711774194    2.1283056565
C        2.8006370176   -0.6893016927    0.6669501598
C        3.2662476636   -1.2048918363   -0.6889211879
C        3.5608169103    0.2221555550   -0.2862506702
C        2.9281824374    1.4070276984   -1.0127786445
H        3.3665002856   -1.0264746498    1.5304590333
H        4.5831497618    0.4465738719    0.0121595824
H       -4.5648061095    0.8098035078   -0.5626242140
H       -2.8691009667    1.3029458064   -2.3291212564
H       -1.3908327029   -0.9070670066    1.7826734984
H        0.9163867953   -0.3820149522   -0.9994755068
H        4.0987903017   -1.9046817771   -0.6994889522
H        2.5391908283   -1.3736685401   -1.4792071204
H        2.0459908849    1.1254937631   -1.5978415981
H        2.6309907535    2.1857816901   -0.2999454384
H        3.6459259305    1.8528751231   -1.7115963309
C       -4.1089868987   -0.4234520394    1.8698480233
H       -4.5868829164    0.4868928762    2.2500400513
H       -4.8965859435   -1.0876086782    1.4954895357
H       -3.6250091203   -0.9237623036    2.7168704251
28   
Iteration 21 Energy -0.17883872
C       -3.1142431864   -0.0918505620    0.7716233875
C       -3.5252329142    0.5414061747   -0.4069427517
C       -2.5751240909    0.8212034091   -1.3977279053
N       -1.2727342709    0.5136148278   -1.2710019576
C       -0.8632808374   -0.0689470099   -0.1410508627
C       -1.7531311976   -0.4064126020    0.8931738480
N        0.4903336851   -0.3849028080   -0.0943998535
C        1.3293048224   -0.4684435218    0.9814323848
O        0.9451598071   -0.3712099719    2.1286513130
C        2.8007950333   -0.6890397983    0.6673529658
C        3.2668908021   -1.2047209975   -0.6883719603
C        3.5603960416    0.2226169183   -0.2861317296
C        2.9275103237    1.4064824794   -1.0141326908
H        3.3666378085   -1.0263465203    1.5308188184
H        4.5825458053    0.4478682741    0.0122759617
H       -4.5642047423    0.8113618843   -0.5621827884
H       -2.8679798148    1.3052205582   -2.3279784374
H       -1.3912785612   -0.9085837846    1.7823380856
H        0.9164116822   -0.3820558830   -0.9990788611
H        4.1003309489   -1.9034381383   -0.6990578449
H        2.5394062870   -1.3751776596   -1.4779030293
H        2.0447953699    1.1244138013   -1.5981124675
H        2.6307757542    2.1862545371   -0.3022269814
H        3.6449436527    1.8512853028   -1.7139334965
C       -4.1093144183   -0.4239911163    1.8694088688
H       -4.5872530701    0.4862186665    2.2498711934
H       -4.8968683965   -1.0879163099    1.4945466176
H       -3.6255858153   -0.9247041025    2.7163328525
28   
Iteration 22 Energy -0.17883888
C       -3.1141238093   -0.0915711235    0.7716535808
C       -3.5249962063    0.5414036283   -0.4071038096
C       -2.5748418831    0.8206818884   -1.3979947366
N       -1.2725229474    0.5128438027   -1.2711812110
C       -0.8631716231   -0.0695205599   -0.1410871704
C       -1.7530808340   -0.4064060310    0.8932822241
N        0.4903975116   -0.3856547050   -0.0943834554
C        1.3293957507   -0.4696091906    0.9813902778
O        0.9453197883   -0.3732479785    2.1287144871
C        2.8009262023   -0.6895998232    0.6670956621
C        3.2672661565   -1.2042868179   -0.6889174170
C        3.5600501535    0.2229745640   -0.2859037020
C        2.9268375544    1.4067505772   -1.0137661011
H        3.3668421502   -1.0275847699    1.5302498479
H        4.5819717152    0.4486648567    0.0129532147
H       -4.5639102723    0.8115414676   -0.5624095875
H       -2.8676002097    1.3044929470   -2.3283832062
H       -1.3913560802   -0.9083644219    1.7826139057
H        0.9166187612   -0.3818945224   -0.9989954961
H        4.1011880509   -1.9024213672   -0.7001575951
H        2.5393905221   -1.3752581626   -1.4779769967
H        2.0440269395    1.1245819402   -1.5975525623
H        2.6301103970    2.1864466585   -0.3017738901
H        3.6440792626    1.8516939775   -1.7136745658
C       -4.1092492667   -0.4231198797    1.8695703589
H       -4.5873350820    0.4872766383    2.2494005781
H       -4.8966875728   -1.0873831641    1.4950640015
H       -3.6255386275   -0.9232242800    2.7168660915
28   
Iteration 23 Energy -0.17883894
C       -3.1140226337   -0.0913106974    0.7717041192
C       -3.5248747253    0.5413226525   -0.4072397910
C       -2.5747389411    0.8201319224   -1.3982861927
N       -1.2724382593    0.5121382326   -1.2714453351
C       -0.8631073931   -0.0699778486   -0.1412150473
C       -1.7530164370   -0.4063280212    0.8933502364
N        0.4904522725   -0.3861827444   -0.0945257121
C        1.3294381132   -0.4704837778    0.9812315255
O        0.9453919546   -0.3748235488    2.1286030007
C        2.8010003687   -0.6900487026    0.6668209604
C        3.2675345882   -1.2040216890   -0.6893801073
C        3.5598535368    0.2231833354   -0.2857655375
C        2.9263503301    1.4070125517   -1.0132750611
H        3.3669785145   -1.0283893167    1.5297974817
H        4.5815795320    0.4491670754    0.0135381344
H       -4.5637579248    0.8115594745   -0.5625744078
H       -2.8674811119    1.3036945325   -2.3288089539
H       -1.3913962711   -0.9080601692    1.7828451495
H        0.9167628068   -0.3819212652   -0.9990918466
H        4.1016780633   -1.9018883151   -0.7009162534
H        2.5395573162   -1.3750668090   -1.4783291911
H        2.0437103538    1.1247243786   -1.5972739494
H        2.6293734272    2.1864191856   -0.3010688134
H        3.6435150062    1.8523519777   -1.7130111728
C       -4.1091340699   -0.4223528811    1.8697890978
H       -4.5873924850    0.4881941103    2.2490409829
H       -4.8964362765   -1.0869904660    1.4956604082
H       -3.6253731830   -0.9218469074    2.7174189188
