28
Properties=species:S:1:pos:R:3 Iteration=T 35=T Energy=T -611.64951053=T pbc="F F F"
C       -3.04694861      -0.50445443       0.64866685
C       -3.57808603      -0.17216134      -0.60245132
C       -2.70584589       0.05201308      -1.65664321
N       -1.37933118      -0.02684020      -1.55458971
C       -0.88050343      -0.34423268      -0.35829143
C       -1.66503950      -0.59479819       0.77244295
N        0.51370002      -0.38986980      -0.35550826
C        1.36771990      -0.69955724       0.67221978
O        0.98909836      -1.04519722       1.78092896
C        2.82877803      -0.56489522       0.38453074
C        3.44578032      -0.31579996      -0.96954930
C        3.48014291       0.77052752       0.05406583
C        2.69167506       2.04382129      -0.10663487
H        3.39266914      -1.19287066       1.06695781
H        4.43692346       0.91061260       0.55392292
H       -4.65110944      -0.09168204      -0.75069281
H       -3.08730937       0.31050260      -2.64297486
H       -1.18533241      -0.85444145       1.70698022
H        0.89745519      -0.20771264      -1.27186100
H        4.35746310      -0.85777097      -1.20343850
H        2.79874921      -0.17766411      -1.83362291
H        1.73457017       1.88237197      -0.61077309
H        2.47651379       2.49447752       0.86821366
H        3.26160283       2.77006350      -0.69660358
C       -3.94264550      -0.75240508       1.82677269
H       -4.49761012       0.15523430       2.09120506
H       -4.68197683      -1.52888707       1.60092364
H       -3.37110107      -1.06817842       2.70340043
