28
Properties=species:S:1:pos:R:3 Iteration=T 34=T Energy=T -611.64809019=T pbc="F F F"
C       -3.10016327      -0.11041372       0.77987839
C       -3.59270001       0.28600991      -0.46836818
C       -2.69702016       0.45296209      -1.51332547
N       -1.38286864       0.25960073      -1.40482123
C       -0.92060721      -0.11858813      -0.21129691
C       -1.73175530      -0.31860457       0.91082948
N        0.46442881      -0.28242759      -0.20427986
C        1.28014430      -0.71115003       0.81302213
O        0.86000787      -1.02877551       1.91538383
C        2.74675803      -0.75301977       0.53034765
C        3.32320888      -1.00607658      -0.84785166
C        3.55498062       0.31271860      -0.19577660
C        2.99779458       1.61342733      -0.71600406
H        3.25266869      -1.23443252       1.36063281
H        4.54356134       0.43141786       0.24507112
H       -4.65399865       0.45972804      -0.62124174
H       -3.04767361       0.76007102      -2.49714784
H       -1.28267073      -0.63209862       1.84390229
H        0.86054498      -0.11459698      -1.11764077
H        4.14025146      -1.71712202      -0.92712159
H        2.63164096      -1.04928060      -1.68674933
H        2.03340167       1.50995959      -1.21914218
H        2.86149139       2.33187576       0.09940176
H        3.69584549       2.05166021      -1.43770399
C       -4.02316834      -0.30983310       1.94608061
H       -4.57949368       0.60831686       2.16632804
H       -4.76114602      -1.09086274       1.73008017
H       -3.47346205      -0.60026567       2.84511791
