28
Properties=species:S:1:pos:R:3 Iteration=T 23=T Energy=T -0.17899530=T pbc="F F F"
C       -3.25403688       0.11455728       0.63909727
C       -3.96767014      -0.33472718      -0.47784832
C       -3.27254496      -0.94139971      -1.53201597
N       -1.93925218      -1.11159647      -1.52763936
C       -1.24279840      -0.66604088      -0.47884824
C       -1.86365602      -0.06781833       0.63165816
N        0.12751735      -0.90492196      -0.52844786
C        1.15060478      -0.20246003       0.04164410
O        0.98456928       0.75709707       0.76734514
C        2.50964994      -0.72734747      -0.37398219
C        3.30706813       0.12730561      -1.34346081
C        3.82646660      -0.09240761       0.05558062
C        3.94130815       1.07368555       1.03237655
H        2.53050561      -1.79723008      -0.56000428
H        4.65862997      -0.78410740       0.16818752
H       -5.04519017      -0.22394999      -0.53337865
H       -3.80265980      -1.30812843      -2.40945480
H       -1.27272810       0.25115821       1.48170497
H        0.37080269      -1.60819210      -1.19847999
H        3.82444685      -0.37200285      -2.15905559
H        2.91709590       1.11277575      -1.59121603
H        3.27316846       1.90171661       0.76778876
H        3.69622800       0.75251052       2.05166036
H        4.96314683       1.47047493       1.04037963
C       -3.96488564       0.76792593       1.81102380
H       -4.56562603       1.62150594       1.47606011
H       -4.63548161       0.05603875       2.30604172
H       -3.25467272       1.13578410       2.56087687
