28
Properties=species:S:1:pos:R:3 Iteration=T 49=T Energy=T -611.64624623=T pbc="F F F"
C       -3.15158931      -0.07051561       0.69826276
C       -3.53148622       0.82513251      -0.30692030
C       -2.54476233       1.39117501      -1.09998204
N       -1.24430035       1.13257097      -0.96756972
C       -0.88938613       0.27587846      -0.00681096
C       -1.79828055      -0.35168013       0.85143876
N        0.48925910       0.07189222       0.04073029
C        1.21619018      -0.72139275       0.88949402
O        0.71759762      -1.36130801       1.80242656
C        2.69004069      -0.79924842       0.64537865
C        3.23914384      -1.34180511      -0.66077742
C        3.57636175       0.05147197      -0.24492203
C        3.15027592       1.25767780      -1.05122043
H        3.17123244      -1.18247141       1.53959962
H        4.56598326       0.17206907       0.19205182
H       -4.57627330       1.07465117      -0.46791278
H       -2.80709234       2.09132608      -1.89136411
H       -1.43275167      -1.03224119       1.60902844
H        0.97613846       0.63146002      -0.64365363
H        3.98749745      -2.12702821      -0.61270662
H        2.52497539      -1.45033584      -1.47432717
H        2.38166549       1.02504907      -1.79776135
H        2.78809469       2.07540266      -0.41785901
H        4.00744663       1.63593194      -1.61777521
C       -4.17281774      -0.70031882       1.59963460
H       -4.56608777       0.03493445       2.31200965
H       -5.02367967      -1.08232270       1.02576508
H       -3.74339619      -1.52575427       2.17334357
