28
Properties=species:S:1:pos:R:3 Iteration=T 33=T Energy=T -611.65483138=T pbc="F F F"
C       -3.15709832      -0.07224196       0.69879648
C       -3.82120701      -1.13746075       0.08051339
C       -3.10457319      -1.96234806      -0.77274737
N       -1.80942303      -1.80585490      -1.04540910
C       -1.18324797      -0.78739198      -0.45317869
C       -1.80597111       0.10700464       0.42428686
N        0.16503206      -0.71099099      -0.80267708
C        1.11308125       0.20187937      -0.41514017
O        0.87662767       1.13953422       0.33493236
C        2.45152204      -0.04208991      -1.01909365
C        3.32649368       1.17094094      -1.24475749
C        3.72202605       0.18236709      -0.20696815
C        3.70063372       0.50492614       1.26375824
H        2.49995500      -0.83247673      -1.76444668
H        4.51929697      -0.49886541      -0.50153822
H       -4.87675779      -1.31904374       0.26159227
H       -3.59202426      -2.79968532      -1.26911677
H       -1.22979699       0.91005408       0.86441412
H        0.43625823      -1.45386663      -1.43276096
H        3.88235835       1.22468542      -2.17587684
H        2.89817590       2.10721679      -0.89723402
H        2.85210986       1.14450283       1.51359637
H        3.62793117      -0.40987811       1.86266353
H        4.62560718       1.01987841       1.54707696
C       -3.88171394       0.85115208       1.63354533
H       -4.71719696       1.34605194       1.12531642
H       -4.30141253       0.29773292       2.48124493
H       -3.21668055       1.62447173       2.02680640
