28
Properties=species:S:1:pos:R:3 Iteration=T 31=T Energy=T -611.65407023=T pbc="F F F"
C       -3.20672648      -0.02540648       0.50064330
C       -3.87014224      -0.99170288      -0.26268822
C       -3.12773866      -1.77373223      -1.13463291
N       -1.80927547      -1.66387634      -1.29405831
C       -1.18319083      -0.73967153      -0.56231033
C       -1.83090636       0.10411038       0.34611347
N        0.18997232      -0.70521580      -0.80512314
C        1.15063245       0.10135344      -0.24824825
O        0.89947552       0.97127947       0.57484585
C        2.51366717      -0.14190617      -0.79529814
C        3.36523949       1.09179712      -1.03020328
C        3.76426409       0.12874326       0.02858849
C        3.72533566       0.47154517       1.49481331
H        2.59459598      -0.93763853      -1.53182351
H        4.58038302      -0.53803651      -0.24735531
H       -4.94430077      -1.12968958      -0.17939050
H       -3.61345518      -2.53359432      -1.74443689
H       -1.25665015       0.83266591       0.90311505
H        0.47185352      -1.39731521      -1.48637225
H        3.93328871       1.14497024      -1.95402465
H        2.91122978       2.02350459      -0.70369145
H        2.86677587       1.10246318       1.72962516
H        3.65732455      -0.43662036       2.10413033
H        4.64330963       0.99894769       1.77820924
C       -3.95507793       0.84393714       1.46822677
H       -4.81060431       1.32721013       0.98377072
H       -4.34817327       0.24895692       2.30102322
H       -3.31110413       1.62312364       1.88415029
