28
Properties=species:S:1:pos:R:3 Iteration=T 54=T Energy=T -0.18441669=T pbc="F F F"
C       -3.16369610      -0.25919226       0.62612622
C       -3.65786808       0.91667424       0.04892531
C       -2.75954409       1.93320694      -0.30114317
N       -1.43233926       1.83451251      -0.11249176
C       -0.94576989       0.70983442       0.41828618
C       -1.77823855      -0.34951394       0.81886981
N        0.43164464       0.68800707       0.61308743
C        1.28443803      -0.37725711       0.62352687
O        0.93614784      -1.53811326       0.53562530
C        2.73040829       0.03641801       0.71248754
C        3.81562402      -0.93695613       0.29608363
C        3.51045557       0.26987333      -0.56545750
C        2.87443600       0.10336900      -1.94122209
H        2.95160756       0.71385586       1.53178899
H        4.23743926       1.07922691      -0.54630681
H       -4.72000332       1.05173768      -0.12419093
H       -3.11580626       2.86156524      -0.74458282
H       -1.35500621      -1.23522790       1.27738992
H        0.84208589       1.60103090       0.58015765
H        4.74290572      -0.93546592       0.86351765
H        3.51189936      -1.91642763      -0.06882313
H        2.20971529      -0.76845693      -1.98199942
H        2.28469276       0.98880472      -2.20699103
H        3.64499387      -0.03165032      -2.70933833
C       -4.09016217      -1.38930900       1.03786510
H       -4.36745780      -1.29937571       2.09450007
H       -5.01227053      -1.38588183       0.44504805
H       -3.61033238      -2.36507164       0.89686588
