28
Properties=species:S:1:pos:R:3 Iteration=T 34=T Energy=T -611.64972687=T pbc="F F F"
C       -3.00941053      -0.29334128       0.94085084
C       -3.72071847      -0.40118481      -0.25910876
C       -3.01379349      -0.57983722      -1.43840513
N       -1.68466280      -0.65571208      -1.50477584
C       -1.01394422      -0.55411680      -0.35622320
C       -1.62211648      -0.37328050       0.89065118
N        0.36767943      -0.64127196      -0.52914315
C        1.36576725      -0.57433306       0.40647020
O        1.17469611      -0.45709996       1.60582235
C        2.75372488      -0.68318254      -0.15806983
C        3.16110625      -0.15620284      -1.50621621
C        3.60402641       0.55671843      -0.25865312
C        3.02163099       1.90137302       0.08963948
H        3.26229992      -1.57494514       0.20089619
H        4.64504165       0.42161140       0.02695270
H       -4.80558201      -0.34731579      -0.27235973
H       -3.53835815      -0.66759129      -2.38825426
H       -1.00751260      -0.30101241       1.77869951
H        0.63332989      -0.78555265      -1.49370083
H        3.88418779      -0.72814891      -2.08029271
H        2.41399040       0.35209856      -2.11331618
H        1.99467741       1.99455337      -0.28161841
H        2.99303624       2.04657918       1.17442288
H        3.61176737       2.70972057      -0.35544920
C       -3.72228269      -0.09278727       2.24598310
H       -4.27173445       0.85574541       2.24756047
H       -4.45393257      -0.88985733       2.41926636
H       -3.02291460      -0.08142092       3.08596507
