28
Properties=species:S:1:pos:R:3 Iteration=T 28=T Energy=T -611.64840048=T pbc="F F F"
C       -3.15076002      -0.10415182       0.82333134
C       -3.90409876      -0.47798756      -0.29471711
C       -3.23667766      -0.86867829      -1.44543244
N       -1.90920756      -0.91287429      -1.55755609
C       -1.19770941      -0.55618187      -0.48668969
C       -1.76453614      -0.14464549       0.72478993
N        0.17785324      -0.63860710      -0.70005311
C        1.21271645      -0.36279244       0.15824683
O        1.05990809       0.04743850       1.29630499
C        2.55110951      -0.66311278      -0.45864285
C        3.13689021       0.24706213      -1.51289943
C        3.77088561       0.15255500      -0.15281116
C        3.74231059       1.33037982       0.78738957
H        2.70767514      -1.73005443      -0.61365497
H        4.69023673      -0.42879093      -0.11000336
H       -4.98982278      -0.46381296      -0.26675030
H       -3.79373167      -1.16485482      -2.33265057
H       -1.12109404       0.13109729       1.55014507
H        0.41066849      -0.93688218      -1.63846466
H        3.62831906      -0.20397945      -2.37029006
H        2.59093128       1.16088454      -1.73731395
H        2.82774905       1.91689713       0.66898907
H        3.78277874       1.00364416       1.83040414
H        4.59839677       1.98595180       0.59178814
C       -3.81868383       0.33382220       2.09376439
H       -4.40661778       1.24459668       1.93121646
H       -4.50877418      -0.43473032       2.45971227
H       -3.08671600       0.53800843       2.87944743
