28
Properties=species:S:1:pos:R:3 Iteration=T 35=T Energy=T -611.64898508=T pbc="F F F"
C       -3.08507976      -0.00831434       0.78023188
C       -3.59210121       0.29501053      -0.48807286
C       -2.71562465       0.33582662      -1.56161385
N       -1.40666341       0.10472956      -1.46296716
C       -0.93058749      -0.18291050      -0.24991254
C       -1.72200761      -0.25420993       0.90127765
N        0.44790564      -0.39771584      -0.25446455
C        1.27064015      -0.74834741       0.78688869
O        0.86398751      -0.94823806       1.92131364
C        2.73054066      -0.85232601       0.48554421
C        3.31826737      -1.02867609      -0.89564873
C        3.55829227       0.24794852      -0.16373554
C        2.99186702       1.56907638      -0.61536074
H        3.22337816      -1.38442238       1.29272115
H        4.54514579       0.33991243       0.28673208
H       -4.64998675       0.49304672      -0.63484728
H       -3.07848948       0.56714123      -2.56160561
H       -1.26223763      -0.50143548       1.84892858
H        0.82955298      -0.33570702      -1.18760082
H        4.12834385      -1.74409983      -1.00262290
H        2.64967758      -1.00955386      -1.75390720
H        2.00486471       1.47710159      -1.07552037
H        2.89284014       2.25920782       0.22945436
H        3.65948048       2.03065675      -1.35127909
C       -3.98616919      -0.07015881       1.97844507
H       -4.48009910       0.89377681       2.14663891
H       -4.77555408      -0.81683766       1.83567923
H       -3.43017958      -0.33027445       2.88289787
