28
Properties=species:S:1:pos:R:3 Iteration=T 65=T Energy=T -611.64893577=T pbc="F F F"
C       -3.00504601      -0.59670453       0.85658872
C       -3.62976180       0.61135105       0.52885385
C       -2.83887167       1.70000111       0.19334749
N       -1.50683161       1.67165242       0.16345632
C       -0.91848246       0.51639328       0.47927341
C       -1.61531566      -0.64381198       0.83298348
N        0.47307215       0.58543324       0.41722085
C        1.40581515      -0.39097331       0.65499820
O        1.12952537      -1.53814439       0.96101446
C        2.81957263       0.10305220       0.50186164
C        3.80457157      -0.66798751      -0.31274531
C        3.33429426       0.67767829      -0.79828214
C        2.47184799       0.76404960      -2.03226711
H        3.19443871       0.56756519       1.41334982
H        4.04364817       1.49600806      -0.68648515
H       -4.71227381       0.70084302       0.53636289
H       -3.29520182       2.65380840      -0.06589010
H       -1.06500186      -1.54347714       1.07644719
H        0.80714385       1.50175953       0.14963385
H        4.81624483      -0.77351200       0.06668689
H        3.42418660      -1.54462216      -0.83094421
H        1.78334443      -0.08498377      -2.10193098
H        1.86998572       1.68033648      -2.05357162
H        3.09695755       0.75858306      -2.93205997
C       -3.80938122      -1.81304370       1.20990249
H       -4.57373645      -1.57772669       1.95831645
H       -4.32990665      -2.20241676       0.32677046
H       -3.17483812      -2.61090579       1.60471398
