28
Properties=species:S:1:pos:R:3 Iteration=T 26=T Energy=T -611.64600980=T pbc="F F F"
C       -3.10621801      -0.52580557       0.71449708
C       -3.62364562       0.30337284      -0.28676851
C       -2.74084095       1.03536745      -1.06569474
N       -1.41632949       0.99906156      -0.92306906
C       -0.92965754       0.20517172       0.03327259
C       -1.72622007      -0.57622525       0.87773748
N        0.46331307       0.23584808       0.09363482
C        1.30493232      -0.42309911       0.95051822
O        0.91592130      -1.13760201       1.86075538
C        2.77464402      -0.24853796       0.72009191
C        3.45749571      -0.89687231      -0.46738283
C        3.51908428       0.58698838      -0.30219060
C        2.91065667       1.52000601      -1.32346257
H        3.29440104      -0.38286213       1.66405103
H        4.45480670       0.96698098       0.10443015
H       -4.69449200       0.37651886      -0.45364792
H       -3.11199459       1.69043658      -1.85208552
H       -1.25734930      -1.19252731       1.63359251
H        0.85766231       0.88476434      -0.57118469
H        4.33415944      -1.50935613      -0.27959240
H        2.80765022      -1.27283481      -1.25479265
H        2.16281848       1.02787713      -1.95532992
H        2.45590501       2.40488411      -0.86198467
H        3.69240446       1.87543443      -2.00305337
C       -4.01587207      -1.33156483       1.59445868
H       -4.64760801      -0.67563437       2.20459511
H       -4.68572354      -1.96017673       0.99708359
H       -3.44990039      -1.97941367       2.26911753
