28   
Iteration 0 Energy -0.17282969
C       -3.2141059200    0.1848718600    0.5744913400
C       -3.9601993500   -0.5694580800   -0.3378097700
C       -3.2850568500   -1.3388226300   -1.2728341200
N       -1.9570292600   -1.4077877900   -1.3606792500
C       -1.2521038000   -0.6855764000   -0.4876052200
C       -1.8271521500    0.1256847400    0.4969545300
N        0.1239357800   -0.8258218000   -0.6646824100
C        1.1573616400   -0.2419619600    0.0275025600
O        0.9868572300    0.5555038700    0.9364875900
C        2.4923917900   -0.6273900000   -0.5236137600
C        3.2468509300    0.4605060900   -1.2758182400
C        3.8023453700   -0.0838077200   -0.0046144100
C        3.9370229600    0.7605743700    1.2370134100
H        2.5321024100   -1.6181346300   -0.9717200600
H        4.6162705200   -0.7955459500   -0.1377263900
H       -5.0461590000   -0.5551597900   -0.3188188500
H       -3.8360554600   -1.9363775400   -1.9970804400
H       -1.1884630800    0.6844196500    1.1682081100
H        0.3468598300   -1.4459365200   -1.4318867500
H        3.7029159200    0.2008334200   -2.2266660700
H        2.8071930400    1.4538720800   -1.2348763200
H        3.1248288000    1.4825637300    1.3214621000
H        3.9174356200    0.1373374700    2.1372347800
H        4.8933730800    1.2954622500    1.2142221400
C       -3.8916827600    1.0334174000    1.6102986900
H       -4.5823310700    1.7439103000    1.1424795100
H       -4.4810225200    0.4142696700    2.2965747400
H       -3.1663759600    1.5987601900    2.2010951000
28   
Iteration 1 Energy -0.17505285
C       -3.2835801564    0.1813170028    0.5722432811
C       -3.9831665345   -0.5891052735   -0.3620232074
C       -3.2596765352   -1.3400125348   -1.2774083037
N       -1.9265034728   -1.3741590506   -1.3235019147
C       -1.2563005942   -0.6389641799   -0.4324060505
C       -1.8922846208    0.1546482430    0.5337010778
N        0.1283868411   -0.7539945522   -0.5795790297
C        1.1898632743   -0.1912350482    0.0888711306
O        1.0876834667    0.6091394314    1.0028903331
C        2.4957051689   -0.6149409715   -0.5098042559
C        3.2548599314    0.4501801642   -1.2897338014
C        3.8429135560   -0.1119056429   -0.0397319457
C        4.0544224781    0.7281443860    1.1968330472
H        2.4886676487   -1.6058399924   -0.9586313581
H        4.6293029618   -0.8478574207   -0.2019404714
H       -5.0689996174   -0.6022356723   -0.3760274476
H       -3.7725978026   -1.9502063182   -2.0189024317
H       -1.2979367148    0.7310443643    1.2283517976
H        0.3504131324   -1.3724525319   -1.3464293161
H        3.6671757978    0.1757538929   -2.2564565077
H        2.8477994115    1.4569069499   -1.2345507405
H        3.2716222906    1.4778960810    1.3152007627
H        4.0506019507    0.1046099737    2.0972575854
H        5.0258557373    1.2320801359    1.1364272214
C       -4.0125922520    1.0123204796    1.5898045858
H       -4.7061925198    1.7067600103    1.1025034542
H       -4.6063414859    0.3776732174    2.2578788960
H       -3.3190936348    1.5946411531    2.2027561459
28   
Iteration 2 Energy -0.17438557
C       -3.3421681523    0.1747462940    0.5680150388
C       -4.0233713894   -0.5995554408   -0.3760008511
C       -3.3092206578   -1.3578883853   -1.3075096199
N       -1.9672011262   -1.3780726879   -1.3391194139
C       -1.2707648159   -0.6537715489   -0.4562738035
C       -1.9441726983    0.1279789951    0.5036320415
N        0.1153212036   -0.7579714714   -0.5915455719
C        1.1441436420   -0.1771961482    0.1008671520
O        0.9546033949    0.6090017110    1.0060095990
C        2.4955569420   -0.5806551829   -0.4577929822
C        3.2570610758    0.4667744763   -1.2593951245
C        3.8895136713   -0.1177022653   -0.0297379441
C        4.2253754928    0.7367791519    1.1879821822
H        2.4699960533   -1.5724045790   -0.9001832235
H        4.6562945690   -0.8714322758   -0.1959614929
H       -5.1077512838   -0.6174990425   -0.3930703846
H       -3.8240679333   -1.9659478855   -2.0495659966
H       -1.3793317918    0.7122491965    1.2153728857
H        0.3621966122   -1.3674358590   -1.3480005930
H        3.6462550260    0.1598894367   -2.2270657614
H        2.8736299201    1.4853828570   -1.2348825034
H        3.5252936662    1.5600605155    1.3519436113
H        4.2380684437    0.1244278249    2.0972518726
H        5.2211547532    1.1793790117    1.0690851013
C       -4.0786206482    1.0089045269    1.5959700341
H       -4.7696766456    1.7067767836    1.1090204486
H       -4.6689814428    0.3704414509    2.2634192468
H       -3.3891284687    1.5949467524    2.2151285216
28   
Iteration 3 Energy -0.17712940
C       -3.2995567681    0.1735899904    0.5659734607
C       -4.0106111922   -0.5890621821   -0.3667900257
C       -3.3069890581   -1.3518557928   -1.3059578912
N       -1.9645144489   -1.3829904005   -1.3502428664
C       -1.2641218804   -0.6621876689   -0.4686773877
C       -1.8990012955    0.1310194137    0.5076621729
N        0.1186520329   -0.7750747917   -0.6136870825
C        1.1451104675   -0.1953047708    0.0796550863
O        1.0099926195    0.5936705867    0.9915125422
C        2.4921772462   -0.6054514829   -0.4829821680
C        3.2445712829    0.4571066006   -1.2698461968
C        3.8624963870   -0.1171581724   -0.0228477233
C        4.1385871404    0.7483931682    1.2028004924
H        2.4828485102   -1.5972509311   -0.9257423541
H        4.6541384306   -0.8498857866   -0.1637797699
H       -5.0950526422   -0.5955110316   -0.3702608840
H       -3.8327127580   -1.9550745176   -2.0443363345
H       -1.3251216906    0.7107285062    1.2169635073
H        0.3626761116   -1.3839482134   -1.3699584304
H        3.6560820159    0.1680124960   -2.2340005176
H        2.8450362763    1.4692711019   -1.2370797885
H        3.4076225549    1.5526912866    1.3358415357
H        4.1376979013    0.1388888332    2.1142388433
H        5.1244619273    1.2202244751    1.1182202161
C       -4.0258453966    1.0120909223    1.6015211561
H       -4.7149273284    1.7155364809    1.1197471940
H       -4.6147422567    0.3760298039    2.2725223572
H       -3.3289468921    1.5937083138    2.2171233039
28   
Iteration 4 Energy -0.17759950
C       -3.2746709095    0.1814804114    0.5797720063
C       -4.0025161781   -0.5726709890   -0.3476200591
C       -3.3071071694   -1.3358398600   -1.2940230788
N       -1.9662086425   -1.3877839825   -1.3657884219
C       -1.2540341468   -0.6747778874   -0.4890775042
C       -1.8754311557    0.1183513059    0.4943834658
N        0.1264410633   -0.7911397704   -0.6403071676
C        1.1771775164   -0.2313754171    0.0307115808
O        1.0413553825    0.5547120744    0.9454053311
C        2.5223483169   -0.6434963689   -0.5280950541
C        3.2684052267    0.4405103227   -1.2886819084
C        3.8505448200   -0.1137916113   -0.0126759298
C        4.0189646756    0.7663446719    1.2206015059
H        2.5438249476   -1.6357675089   -0.9697207450
H        4.6777987782   -0.8134602806   -0.1111766599
H       -5.0870671627   -0.5728171803   -0.3418028071
H       -3.8481391683   -1.9317542712   -2.0272325553
H       -1.2847912360    0.6895646763    1.1980301424
H        0.3556475678   -1.4012634544   -1.4002764004
H        3.7232351704    0.1749486210   -2.2399915484
H        2.8437459689    1.4420558349   -1.2526110603
H        3.2398559612    1.5340553090    1.2948740607
H        3.9894713904    0.1623199913    2.1351120341
H        4.9847817175    1.2842149335    1.1936121564
C       -3.9762516784    1.0258300945    1.6296056560
H       -4.6632037885    1.7397807938    1.1604858874
H       -4.5611951951    0.3946647988    2.3086324550
H       -3.2629746673    1.5973110043    2.2354469693
28   
Iteration 5 Energy -0.17802674
C       -3.2794213775    0.1746466697    0.5802050992
C       -3.9994904098   -0.5736622095   -0.3572348464
C       -3.3070241695   -1.3290752292   -1.3119589487
N       -1.9645548085   -1.3678721083   -1.3690408299
C       -1.2597469480   -0.6595135716   -0.4820406379
C       -1.8788065791    0.1251642039    0.5104532643
N        0.1213218805   -0.7748117965   -0.6340445044
C        1.1637982350   -0.2123334583    0.0478986589
O        1.0306261667    0.5667488115    0.9683463658
C        2.5063929405   -0.6363730826   -0.5149459550
C        3.2715178027    0.4245496410   -1.2902953079
C        3.8505510931   -0.1233599185   -0.0109920860
C        4.0484271687    0.7765039666    1.2057220067
H        2.5086869674   -1.6327991813   -0.9471442843
H        4.6683861922   -0.8347265801   -0.1038662942
H       -5.0840494950   -0.5756159327   -0.3524818464
H       -3.8424167045   -1.9205940383   -2.0528285201
H       -1.2950541466    0.6912910952    1.2234370453
H        0.3556871617   -1.3813556992   -1.3952711311
H        3.7266354635    0.1318284155   -2.2333620679
H        2.8749831976    1.4381732809   -1.2737313800
H        3.2996983147    1.5738651772    1.2677447644
H        4.0017656327    0.1924669276    2.1324142241
H        5.0300968734    1.2626898150    1.1655165056
C       -3.9952924316    1.0050157628    1.6319512112
H       -4.6821847655    1.7196257602    1.1637654650
H       -4.5805884764    0.3641752969    2.3015387735
H       -3.2899373792    1.5755543683    2.2478375518
28   
Iteration 6 Energy -0.17802628
C       -3.2815020404    0.1681027381    0.5805996507
C       -4.0122191106   -0.5670324263   -0.3588667966
C       -3.3097057280   -1.3106360293   -1.3151177501
N       -1.9680043162   -1.3577032450   -1.3815276600
C       -1.2554756349   -0.6606726268   -0.4919837513
C       -1.8815974439    0.1128623410    0.5045468089
N        0.1255067604   -0.7772818290   -0.6453535967
C        1.1565834875   -0.2088001159    0.0493005672
O        1.0281204190    0.5667160602    0.9733854933
C        2.5004920905   -0.6355604873   -0.5091485757
C        3.2786107250    0.4101488831   -1.2917704020
C        3.8460889382   -0.1255350535   -0.0023806005
C        4.0400662270    0.7941425911    1.2004775041
H        2.4986954828   -1.6359772876   -0.9319647920
H        4.6643107634   -0.8381059599   -0.0820045615
H       -5.0968346141   -0.5680230231   -0.3543860651
H       -3.8452484633   -1.8951003049   -2.0614519153
H       -1.2963960450    0.6709316119    1.2226706643
H        0.3654548491   -1.3813997973   -1.4071499502
H        3.7470967518    0.0994932929   -2.2224109570
H        2.8960616674    1.4291846266   -1.2962684076
H        3.3059573565    1.6064068540    1.2333920843
H        3.9668858578    0.2297244868    2.1375189677
H        5.0306529546    1.2623720585    1.1667236954
C       -3.9867209939    0.9928054271    1.6436067135
H       -4.6716001091    1.7160288606    1.1858598529
H       -4.5711380522    0.3494049769    2.3114997185
H       -3.2741344510    1.5537097214    2.2597964770
28   
Iteration 7 Energy -0.17818930
C       -3.2790615064    0.1691920389    0.5858566919
C       -4.0027588981   -0.5641060683   -0.3604580623
C       -3.3069725605   -1.3064442536   -1.3221223143
N       -1.9652186708   -1.3508822817   -1.3836667475
C       -1.2588120542   -0.6555480297   -0.4880995307
C       -1.8792377030    0.1156608355    0.5132660274
N        0.1222441728   -0.7716902276   -0.6397949854
C        1.1617362218   -0.2098201118    0.0478046348
O        1.0332651377    0.5656315972    0.9723246471
C        2.5031875728   -0.6395001735   -0.5119983280
C        3.2843848444    0.4012849245   -1.2969026372
C        3.8459142678   -0.1284958325   -0.0020936070
C        4.0302767127    0.7990915314    1.1954532491
H        2.5014649808   -1.6416255563   -0.9310144720
H        4.6661408298   -0.8395072424   -0.0753571668
H       -5.0874249982   -0.5643625128   -0.3566923961
H       -3.8431603881   -1.8872447928   -2.0708429389
H       -1.2920712677    0.6696142784    1.2331548752
H        0.3583197948   -1.3761670933   -1.4029060830
H        3.7596229824    0.0870231340   -2.2228963962
H        2.9049718343    1.4213244191   -1.3069061938
H        3.2980775963    1.6138419837    1.2112410318
H        3.9426523204    0.2426703924    2.1360019562
H        5.0232123262    1.2628463615    1.1699934906
C       -3.9899110609    0.9878094145    1.6493573970
H       -4.6744853405    1.7115402084    1.1919903070
H       -4.5754121542    0.3404192012    2.3124277116
H       -3.2809377090    1.5476501360    2.2704722857
28   
Iteration 8 Energy -0.17823447
C       -3.2778866214    0.1669940361    0.5893058483
C       -4.0033061464   -0.5580032694   -0.3619928364
C       -3.3091273903   -1.2954006627   -1.3285846724
N       -1.9672602551   -1.3407296128   -1.3880124148
C       -1.2587215430   -0.6529568394   -0.4881794905
C       -1.8780811970    0.1123583494    0.5184572068
N        0.1220545104   -0.7718604866   -0.6404659449
C        1.1650340538   -0.2124593455    0.0438311929
O        1.0336575925    0.5634984834    0.9676031279
C        2.5064978368   -0.6444861579   -0.5140391318
C        3.2925190442    0.3888718434   -1.3024256892
C        3.8451910228   -0.1293449470    0.0017155044
C        4.0196638028    0.8113269815    1.1905181262
H        2.5067053601   -1.6497280747   -0.9255627504
H        4.6679836256   -0.8384637482   -0.0599642737
H       -5.0879445152   -0.5557579895   -0.3583212514
H       -3.8456425560   -1.8702632264   -2.0816456592
H       -1.2915566038    0.6604149865    1.2432694533
H        0.3554270000   -1.3765283317   -1.4041759340
H        3.7783039356    0.0681072095   -2.2207559465
H        2.9167567178    1.4100847018   -1.3217615966
H        3.2963866183    1.6344877021    1.1823902871
H        3.9081049151    0.2680203465    2.1362323719
H        5.0183060177    1.2632045665    1.1773775327
C       -3.9880961036    0.9793504819    1.6579738202
H       -4.6713788792    1.7071647303    1.2051565433
H       -4.5748547952    0.3282639309    2.3162957156
H       -3.2787282342    1.5340405992    2.2833532593
28   
Iteration 9 Energy -0.17827284
C       -3.2760184612    0.1652581383    0.5957540867
C       -3.9987366648   -0.5488577141   -0.3658618834
C       -3.3081424403   -1.2795837921   -1.3399323997
N       -1.9665178383   -1.3291531269   -1.3983749221
C       -1.2580869709   -0.6519075957   -0.4905184654
C       -1.8766161958    0.1044848571    0.5233126134
N        0.1226412186   -0.7740308288   -0.6404916855
C        1.1657001327   -0.2128514988    0.0422450071
O        1.0373619655    0.5669217606    0.9634512232
C        2.5066190431   -0.6494212259   -0.5123264598
C        3.2983609972    0.3722162403   -1.3085872180
C        3.8417402977   -0.1298860444    0.0066435932
C        4.0067858252    0.8282338288    1.1824940031
H        2.5079639136   -1.6595054353   -0.9118440032
H        4.6661826290   -0.8381486294   -0.0413362178
H       -5.0833588732   -0.5433738922   -0.3642434589
H       -3.8466678109   -1.8447062909   -2.0989080677
H       -1.2880490055    0.6420280184    1.2543170554
H        0.3558950513   -1.3797529547   -1.4034078096
H        3.7956619236    0.0410909860   -2.2170760258
H        2.9262695465    1.3943139726   -1.3430803582
H        3.2992193727    1.6643822535    1.1408195027
H        3.8598153546    0.3044371729    2.1343991091
H        5.0144678011    1.2597649339    1.1870681332
C       -3.9854517693    0.9684748326    1.6716318755
H       -4.6664387474    1.7024408534    1.2253163726
H       -4.5748443288    0.3122058517    2.3224142508
H       -3.2757488171    1.5151316231    2.3037145379
28   
Iteration 10 Energy -0.17831118
C       -3.2757687685    0.1597684696    0.6000013336
C       -4.0005145540   -0.5362868000   -0.3735505647
C       -3.3055372145   -1.2551063025   -1.3530296469
N       -1.9644391582   -1.3116127897   -1.4090406326
C       -1.2583677322   -0.6488388693   -0.4889387042
C       -1.8763103663    0.0950727303    0.5341308290
N        0.1224311858   -0.7758217242   -0.6330428086
C        1.1673068768   -0.2097916543    0.0428685312
O        1.0381732404    0.5801371188    0.9557298154
C        2.5075884562   -0.6541549417   -0.5051422793
C        3.3039593763    0.3517119666   -1.3155649715
C        3.8410228161   -0.1297284906    0.0105787241
C        4.0005970172    0.8486090762    1.1696904756
H        2.5091317279   -1.6710855788   -0.8869824141
H        4.6650890161   -0.8392769565   -0.0235323249
H       -5.0851235040   -0.5261713520   -0.3765803326
H       -3.8428717475   -1.8074971751   -2.1221513234
H       -1.2877738113    0.6180695375    1.2757397473
H        0.3553037758   -1.3857773186   -1.3928859688
H        3.8101308181    0.0065541871   -2.2138695898
H        2.9330514041    1.3732729326   -1.3705846978
H        3.3183481649    1.7028869371    1.0861268554
H        3.8063751620    0.3512565888    2.1273179733
H        5.0207428727    1.2488117492    1.1979598317
C       -3.9852607298    0.9502250310    1.6847451068
H       -4.6624367047    1.6927063704    1.2468096374
H       -4.5793693144    0.2871122239    2.3242013834
H       -3.2754712499    1.4851613788    2.3265883726
28   
Iteration 11 Energy -0.17835898
C       -3.2730615304    0.1563829824    0.6031103613
C       -3.9998580445   -0.5240761232   -0.3797837834
C       -3.3064176367   -1.2368530398   -1.3652048522
N       -1.9650663108   -1.2993372400   -1.4156398120
C       -1.2548897698   -0.6506836626   -0.4883538936
C       -1.8736342834    0.0842209693    0.5410836909
N        0.1254696621   -0.7862227312   -0.6291372443
C        1.1680527237   -0.2091020109    0.0405936634
O        1.0384811533    0.5952654333    0.9406107139
C        2.5096042355   -0.6601229882   -0.4995840974
C        3.3044648857    0.3382428109   -1.3207957583
C        3.8405268422   -0.1252665758    0.0124083496
C        3.9928568189    0.8645527987    1.1629389785
H        2.5143585952   -1.6824401979   -0.8665637262
H        4.6657385434   -0.8338838955   -0.0106246115
H       -5.0843365088   -0.5071631425   -0.3854981244
H       -3.8440469837   -1.7781870593   -2.1419503422
H       -1.2859601952    0.5946906764    1.2919834875
H        0.3585888723   -1.4024156850   -1.3835247768
H        3.8136090149   -0.0151808248   -2.2142084142
H        2.9266682294    1.3565298026   -1.3893886599
H        3.3273991833    1.7293682734    1.0537626146
H        3.7665908110    0.3827422946    2.1215429940
H        5.0195299292    1.2457170859    1.2111476961
C       -3.9810057615    0.9388788738    1.6950092148
H       -4.6535746459    1.6893637552    1.2636333602
H       -4.5801680527    0.2719836349    2.3257551518
H       -3.2699128254    1.4632021853    2.3442701102
28   
Iteration 12 Energy -0.17842253
C       -3.2711641755    0.1513724322    0.6074736025
C       -3.9967841281   -0.5037509387   -0.3933542956
C       -3.3027627045   -1.2063168285   -1.3861949426
N       -1.9615021902   -1.2813829889   -1.4275522909
C       -1.2515222373   -0.6545682822   -0.4851327821
C       -1.8719118484    0.0656376578    0.5538028146
N        0.1285286275   -0.8032550277   -0.6143058727
C        1.1674159136   -0.2031249195    0.0403496913
O        1.0351336072    0.6318871756    0.9114917916
C        2.5111257274   -0.6678505339   -0.4841008539
C        3.2995050247    0.3183209050   -1.3273381381
C        3.8424547295   -0.1170081649    0.0118486517
C        3.9913729040    0.8867193585    1.1510025130
H        2.5181288080   -1.6983870925   -0.8271093525
H        4.6672462245   -0.8263797833    0.0013670996
H       -5.0809475444   -0.4760461262   -0.4069822453
H       -3.8398001196   -1.7289129941   -2.1760731349
H       -1.2849811377    0.5537799583    1.3200836791
H        0.3638699337   -1.4337805019   -1.3557922274
H        3.8021811739   -0.0502333720   -2.2182590795
H        2.9098805768    1.3308980686   -1.4137587770
H        3.3498139150    1.7653014710    1.0128003518
H        3.7282750634    0.4256725411    2.1104696569
H        5.0259435228    1.2422971588    1.2209821900
C       -3.9795971360    0.9204710912    1.7090433318
H       -4.6432339634    1.6840790254    1.2869424640
H       -4.5884437238    0.2476021715    2.3239667959
H       -3.2682180535    1.4271650319    2.3719216005
28   
Iteration 13 Energy -0.17847468
C       -3.2682374414    0.1443861809    0.6136270817
C       -3.9914203843   -0.4756315804   -0.4110115373
C       -3.2966138270   -1.1626910957   -1.4142946168
N       -1.9559123240   -1.2539328604   -1.4438465683
C       -1.2485160363   -0.6570017648   -0.4804469017
C       -1.8696990051    0.0421833806    0.5719305375
N        0.1307757957   -0.8222757041   -0.5940708451
C        1.1664933699   -0.1956253452    0.0401681129
O        1.0307414748    0.6760133978    0.8741152690
C        2.5125642681   -0.6777282269   -0.4626447046
C        3.2959256394    0.2880132564   -1.3349931820
C        3.8442436202   -0.1089034392    0.0129059635
C        3.9858116103    0.9169394210    1.1331581197
H        2.5209025785   -1.7178340782   -0.7753625526
H        4.6693526699   -0.8179444190    0.0210301802
H       -5.0749712619   -0.4336452769   -0.4345417581
H       -3.8321707949   -1.6592145199   -2.2217980730
H       -1.2830174425    0.4995377406    1.3574558923
H        0.3681324547   -1.4710789186   -1.3190176323
H        3.7914654322   -0.1055920518   -2.2191020121
H        2.8990391252    1.2950770829   -1.4491324613
H        3.3668081225    1.8049992423    0.9584260835
H        3.6882914529    0.4837816112    2.0955554292
H        5.0256353913    1.2523252121    1.2223159450
C       -3.9784790360    0.8934374605    1.7279519752
H       -4.6299562316    1.6746260082    1.3193039098
H       -4.5996459813    0.2121129688    2.3208376041
H       -3.2675366657    1.3758729466    2.4090728818
28   
Iteration 14 Energy -0.17853569
C       -3.2644926505    0.1359056436    0.6212558638
C       -3.9840260948   -0.4390553437   -0.4318701487
C       -3.2884822038   -1.1057940886   -1.4484224702
N       -1.9490750666   -1.2184118814   -1.4652429099
C       -1.2457042526   -0.6604172899   -0.4761869443
C       -1.8674891931    0.0119400707    0.5925031079
N        0.1320046044   -0.8464666842   -0.5695219838
C        1.1640167773   -0.1896921752    0.0393821580
O        1.0208956806    0.7214450473    0.8287133420
C        2.5138048973   -0.6902196873   -0.4355214957
C        3.2928757894    0.2480136654   -1.3420964585
C        3.8450947401   -0.1001115298    0.0165580891
C        3.9768740107    0.9557431890    1.1099273322
H        2.5237589710   -1.7401602070   -0.7133689462
H        4.6722164520   -0.8061137283    0.0488848573
H       -5.0664070254   -0.3786399763   -0.4668948486
H       -3.8222917862   -1.5683548174   -2.2769743445
H       -1.2803273169    0.4308675975    1.3992983143
H        0.3716567032   -1.5166298160   -1.2740746626
H        3.7803659420   -0.1784172175   -2.2153449663
H        2.8942545657    1.2500653039   -1.4897933996
H        3.3723609395    1.8453916547    0.8975808790
H        3.6577810788    0.5540144903    2.0790030448
H        5.0183931601    1.2833026351    1.2079614817
C       -3.9765675745    0.8596354902    1.7511112784
H       -4.6122847949    1.6626934869    1.3604344325
H       -4.6129174542    0.1688938230    2.3163407529
H       -3.2662826881    1.3107792014    2.4539507518
28   
Iteration 15 Energy -0.17861548
C       -3.2592419499    0.1290937991    0.6271010738
C       -3.9765531900   -0.4059359066   -0.4484665505
C       -3.2818857760   -1.0553248924   -1.4767671138
N       -1.9442673114   -1.1882380842   -1.4848325039
C       -1.2441373776   -0.6655050093   -0.4747972624
C       -1.8643102643   -0.0153330984    0.6075049325
N        0.1314136268   -0.8702774625   -0.5501650953
C        1.1598389644   -0.1907514195    0.0391392052
O        1.0073891734    0.7462836436    0.7958852822
C        2.5138163054   -0.7014143594   -0.4123649712
C        3.2906700579    0.2132890130   -1.3448124975
C        3.8429846448   -0.0936622200    0.0230056436
C        3.9642928230    0.9901619892    1.0898961586
H        2.5265462122   -1.7577100192   -0.6649313464
H        4.6744486329   -0.7933284536    0.0756401142
H       -5.0575390695   -0.3280764055   -0.4917577431
H       -3.8150011524   -1.4873191642   -2.3220932063
H       -1.2744949034    0.3713531662    1.4289044771
H        0.3731436490   -1.5564431061   -1.2385723869
H        3.7738692188   -0.2411475779   -2.2062256312
H        2.8967953838    1.2125280129   -1.5213598598
H        3.3504372179    1.8679291692    0.8567591985
H        3.6550125406    0.6089625225    2.0703269206
H        5.0017967592    1.3339268933    1.1740412331
C       -3.9711736158    0.8322081200    1.7697408123
H       -4.5924102750    1.6541274159    1.3953465666
H       -4.6207402749    0.1353807244    2.3119878807
H       -3.2606941546    1.2554297440    2.4894590201
28   
Iteration 16 Energy -0.17870145
C       -3.2543797583    0.1221586759    0.6337081779
C       -3.9700471862   -0.3702449572   -0.4633430637
C       -3.2761499213   -1.0001467867   -1.5041293650
N       -1.9408460883   -1.1535313240   -1.5055207245
C       -1.2429247863   -0.6683701191   -0.4756151867
C       -1.8619421438   -0.0427995816    0.6209706246
N        0.1299795055   -0.8915058298   -0.5359051320
C        1.1559616026   -0.1963478727    0.0389094914
O        0.9944311701    0.7575967943    0.7727233741
C        2.5134271663   -0.7142960397   -0.3917880676
C        3.2952345118    0.1722602835   -1.3460542690
C        3.8371621239   -0.0903958033    0.0354899335
C        3.9466940730    1.0297203164    1.0651999456
H        2.5301026593   -1.7765865501   -0.6176416608
H        4.6738421729   -0.7814614483    0.1132158961
H       -5.0493157747   -0.2746702760   -0.5134862511
H       -3.8084902011   -1.3997275114   -2.3657296849
H       -1.2700668256    0.3095372353    1.4567701484
H        0.3725259758   -1.5893948275   -1.2121586939
H        3.7862700096   -0.3091717380   -2.1882127032
H        2.9112823965    1.1687962184   -1.5560904479
H        3.3123899148    1.8867856509    0.8102232211
H        3.6576806036    0.6741836727    2.0613029508
H        4.9772624020    1.3986498976    1.1242455466
C       -3.9651718095    0.8021055805    1.7904451870
H       -4.5727162091    1.6425039629    1.4350833586
H       -4.6277470760    0.0990449887    2.3083548015
H       -3.2544428833    1.1955145467    2.5266249798
28   
Iteration 17 Energy -0.17875474
C       -3.2526076015    0.1185959661    0.6365074582
C       -3.9687818830   -0.3516821050   -0.4700995338
C       -3.2756882844   -0.9707299282   -1.5180449476
N       -1.9416325555   -1.1339360400   -1.5178537780
C       -1.2431812969   -0.6690829829   -0.4789203793
C       -1.8614624645   -0.0564980123    0.6251476913
N        0.1282623504   -0.9008907218   -0.5333245339
C        1.1526256454   -0.2019162229    0.0393813851
O        0.9862840581    0.7544045412    0.7693333603
C        2.5118144921   -0.7215801569   -0.3825247884
C        3.3011340783    0.1490882587   -1.3442887812
C        3.8309935821   -0.0910226972    0.0469730239
C        3.9390305811    1.0526157338    1.0505081116
H        2.5313866953   -1.7869645786   -0.5930207147
H        4.6695519485   -0.7779119952    0.1398960998
H       -5.0471349572   -0.2474345656   -0.5222023503
H       -3.8081263658   -1.3534606592   -2.3872035088
H       -1.2682223719    0.2787428118    1.4672585869
H        0.3713389195   -1.6019217680   -1.2059329569
H        3.8046696847   -0.3432252282   -2.1727291229
H        2.9221998013    1.1433080199   -1.5733078531
H        3.2810355793    1.8909476324    0.7927132051
H        3.6788276642    0.7116974982    2.0595820976
H        4.9627528922    1.4435242326    1.0796338281
C       -3.9615033800    0.7861599248    1.8013221280
H       -4.5634035180    1.6350928692    1.4567823076
H       -4.6300764451    0.0799868207    2.3071484270
H       -3.2500812403    1.1643005604    2.5448579051
28   
Iteration 18 Energy -0.17876879
C       -3.2536345707    0.1111196851    0.6428396360
C       -3.9643716410   -0.3187199737   -0.4836966878
C       -3.2673311870   -0.9159111240   -1.5419455443
N       -1.9352277938   -1.0942002101   -1.5333839981
C       -1.2411743711   -0.6647546677   -0.4762923322
C       -1.8644304855   -0.0793161766    0.6395595036
N        0.1277705754   -0.9120367302   -0.5190367209
C        1.1508467319   -0.2010180575    0.0405290092
O        0.9823456068    0.7717961159    0.7481531480
C        2.5108461778   -0.7321267212   -0.3632664583
C        3.3087376045    0.1072703112   -1.3450483279
C        3.8263691256   -0.0898528362    0.0583367649
C        3.9340449006    1.0893000445    1.0198411648
H        2.5319004736   -1.8038953976   -0.5380592338
H        4.6638526130   -0.7738954675    0.1780232016
H       -5.0409204311   -0.2008611115   -0.5431763464
H       -3.7952165327   -1.2684291850   -2.4265250336
H       -1.2753512650    0.2222810665    1.4974159480
H        0.3703154720   -1.6231491729   -1.1809319969
H        3.8253543366   -0.4066565842   -2.1520615117
H        2.9292003781    1.0927885624   -1.6081466180
H        3.2727793957    1.9160667843    0.7340436838
H        3.6741522408    0.7837866348    2.0402919665
H        4.9574116716    1.4819106710    1.0354875779
C       -3.9662822424    0.7521656190    1.8201486271
H       -4.5584500442    1.6153107514    1.4945493905
H       -4.6456587655    0.0382824720    2.3000900629
H       -3.2578724661    1.1029520873    2.5798535824
28   
Iteration 19 Energy -0.17878559
C       -3.2542841392    0.1151722630    0.6383013403
C       -3.9699989947   -0.3381174024   -0.4757794515
C       -3.2759728413   -0.9465703770   -1.5297195192
N       -1.9425006717   -1.1148861989   -1.5276727049
C       -1.2439159401   -0.6661429842   -0.4815197091
C       -1.8636357166   -0.0653395981    0.6283744376
N        0.1267162245   -0.9028740599   -0.5338607469
C        1.1496052332   -0.2038906619    0.0409118259
O        0.9833149999    0.7511583976    0.7726387729
C        2.5087929540   -0.7270301122   -0.3760716566
C        3.3087539946    0.1292524747   -1.3417118347
C        3.8246338332   -0.0942016872    0.0585669989
C        3.9419177168    1.0722051676    1.0346426948
H        2.5297538897   -1.7962337588   -0.5658755434
H        4.6590559314   -0.7837591708    0.1674973847
H       -5.0477717522   -0.2289645833   -0.5293490170
H       -3.8073269339   -1.3163069207   -2.4051457431
H       -1.2717169913    0.2573960513    1.4762653773
H        0.3701335229   -1.6045352653   -1.2053848481
H        3.8301924290   -0.3670072651   -2.1566230702
H        2.9231580047    1.1168897936   -1.5875957604
H        3.2662366141    1.8964636844    0.7773323582
H        3.7072081944    0.7488500279    2.0556851259
H        4.9617853737    1.4741216059    1.0345585392
C       -3.9633251473    0.7708910591    1.8099290196
H       -4.5636475404    1.6244868086    1.4742446884
H       -4.6349222758    0.0605954870    2.3058802987
H       -3.2522342832    1.1385846114    2.5590732927
28   
Iteration 20 Energy -0.17879133
C       -3.2542581566    0.1151128497    0.6386017558
C       -3.9686360298   -0.3376878079   -0.4764657430
C       -3.2738785855   -0.9461576484   -1.5298550359
N       -1.9404187945   -1.1148570351   -1.5264312190
C       -1.2431772111   -0.6661687578   -0.4794452560
C       -1.8636681680   -0.0657592976    0.6301618244
N        0.1273757207   -0.9036442740   -0.5303971383
C        1.1505606799   -0.2022317147    0.0409358749
O        0.9846966319    0.7565561671    0.7677535171
C        2.5096545708   -0.7266782951   -0.3751088792
C        3.3067013734    0.1301343928   -1.3429351601
C        3.8267031132   -0.0929188277    0.0554434349
C        3.9420468767    1.0708665114    1.0349147355
H        2.5302055239   -1.7959516911   -0.5645959350
H        4.6607630789   -0.7830211739    0.1637242855
H       -5.0463300428   -0.2282241928   -0.5311496317
H       -3.8044741043   -1.3155919356   -2.4058676469
H       -1.2724544055    0.2560834054    1.4788952128
H        0.3706085530   -1.6068574691   -1.2004626816
H        3.8235197377   -0.3674738377   -2.1599383417
H        2.9191399983    1.1172193676   -1.5880148136
H        3.2735691302    1.8994449866    0.7728864402
H        3.6972572329    0.7471570588    2.0534700006
H        4.9639533354    1.4674712613    1.0437406289
C       -3.9645838761    0.7705834889    1.8096533901
H       -4.5643066525    1.6244425764    1.4735770000
H       -4.6363750660    0.0600981371    2.3050671901
H       -3.2541888223    1.1382611248    2.5594346628
28   
Iteration 21 Energy -0.17879205
C       -3.2542274108    0.1147392131    0.6389180360
C       -3.9680774834   -0.3358775381   -0.4773569542
C       -3.2730441672   -0.9432448787   -1.5311999918
N       -1.9396870594   -1.1128769012   -1.5271097613
C       -1.2429740142   -0.6660877753   -0.4789889946
C       -1.8637600882   -0.0670638199    0.6311603913
N        0.1274296300   -0.9044863831   -0.5290327347
C        1.1505734462   -0.2021561434    0.0412152991
O        0.9846208113    0.7576515146    0.7666299405
C        2.5096961834   -0.7271419314   -0.3741455832
C        3.3067508980    0.1283796550   -1.3431811341
C        3.8267271917   -0.0925867897    0.0554589306
C        3.9418899400    1.0725530363    1.0333606822
H        2.5303672337   -1.7968007451   -0.5614404908
H        4.6600523722   -0.7832675569    0.1656962866
H       -5.0456603442   -0.2255951913   -0.5326231106
H       -3.8033006587   -1.3110101605   -2.4081193717
H       -1.2727808603    0.2529830417    1.4807544746
H        0.3706649528   -1.6081652592   -1.1986321661
H        3.8236478984   -0.3703060749   -2.1594681731
H        2.9177799888    1.1145296866   -1.5898096964
H        3.2738374552    1.9009663901    0.7697695527
H        3.6966368655    0.7503888835    2.0522911052
H        4.9638657746    1.4689808035    1.0419504061
C       -3.9649518788    0.7688990843    1.8104844220
H       -4.5644332903    1.6232401671    1.4752050994
H       -4.6368709622    0.0578565279    2.3049231444
H       -3.2547667917    1.1357065889    2.5608829041
28   
Iteration 22 Energy -0.17879236
C       -3.2541251723    0.1145746344    0.6390628967
C       -3.9677798779   -0.3349510943   -0.4777693813
C       -3.2726712661   -0.9417703941   -1.5318687923
N       -1.9393667313   -1.1118785422   -1.5275183540
C       -1.2428804820   -0.6660819311   -0.4788463853
C       -1.8637279945   -0.0677079270    0.6315893213
N        0.1274465109   -0.9049117640   -0.5285011060
C        1.1505777209   -0.2023565490    0.0414793485
O        0.9845641039    0.7574674068    0.7668338598
C        2.5097075128   -0.7273363654   -0.3739051438
C        3.3069593114    0.1275479597   -1.3433559651
C        3.8266337938   -0.0924126119    0.0555296458
C        3.9415841493    1.0734675384    1.0325732438
H        2.5305291652   -1.7971902226   -0.5600829189
H        4.6591877861   -0.7837636439    0.1673869997
H       -5.0453091691   -0.2242478609   -0.5332670778
H       -3.8028051699   -1.3086915297   -2.4092156275
H       -1.2727959204    0.2514672072    1.4815553073
H        0.3706992226   -1.6084532897   -1.1982579321
H        3.8241744763   -0.3716013045   -2.1591521581
H        2.9170401866    1.1131075450   -1.5908476889
H        3.2734611205    1.9015902612    0.7682505805
H        3.6964831278    0.7520657579    2.0517795429
H        4.9634603404    1.4701589249    1.0406957789
C       -3.9649723093    0.7681104791    1.8109059154
H       -4.5649237397    1.6222479460    1.4759497787
H       -4.6363408216    0.0565852469    2.3053972356
H       -3.2548042470    1.1351714838    2.5611915666
28   
Iteration 23 Energy -0.17879247
C       -3.2540666632    0.1145624005    0.6390936591
C       -3.9677230621   -0.3347243514   -0.4778361828
C       -3.2726233975   -0.9414242643   -1.5320049528
N       -1.9393336741   -1.1116454147   -1.5276441968
C       -1.2428576416   -0.6660867183   -0.4788690528
C       -1.8636892047   -0.0678386979    0.6316379712
N        0.1274530593   -0.9049952475   -0.5284822201
C        1.1505891396   -0.2025140939    0.0415821647
O        0.9845365906    0.7570693104    0.7672439760
C        2.5097212250   -0.7273514255   -0.3739772359
C        3.3071203666    0.1273487927   -1.3434413607
C        3.8265727195   -0.0923690317    0.0555837522
C        3.9413583375    1.0736913219    1.0324224631
H        2.5306059527   -1.7972276099   -0.5600289934
H        4.6587641600   -0.7840406905    0.1681549706
H       -5.0452418159   -0.2239282617   -0.5333534189
H       -3.8027569823   -1.3081557092   -2.4094313061
H       -1.2727434518    0.2511380540    1.4816722010
H        0.3707130702   -1.6082951562   -1.1984926947
H        3.8244885663   -0.3719300959   -2.1590608599
H        2.9171250303    1.1128168858   -1.5911683297
H        3.2731598870    1.9016887656    0.7678788762
H        3.6963139067    0.7524602303    2.0516970483
H        4.9631720642    1.4705449579    1.0404243723
C       -3.9648877339    0.7679599283    1.8110210027
H       -4.5656107162    1.6215512103    1.4760548397
H       -4.6354958561    0.0560939372    2.3060529236
H       -3.2546582486    1.1358083667    2.5608631337
