28
Properties=species:S:1:pos:R:3 Iteration=T 28=T Energy=T -0.17844713=T pbc="F F F"
C       -3.19740927      -0.27618465       0.68708803
C       -3.80033039      -0.31019395      -0.57548903
C       -2.99948191      -0.50515021      -1.70827698
N       -1.66556215      -0.65785492      -1.64428782
C       -1.07446869      -0.60475794      -0.44791264
C       -1.80523293      -0.43568897       0.74099057
N        0.30320659      -0.79995018      -0.45446793
C        1.24871323      -0.32340737       0.40708150
O        0.99833438       0.28907241       1.42565437
C        2.65467570      -0.66490360      -0.02198791
C        3.19917173      -0.06460644      -1.30473102
C        3.76388574       0.36999030       0.02956741
C        3.54530729       1.79269162       0.53218836
H        2.93531886      -1.69329516       0.18353274
H        4.75128143      -0.00435873       0.29159684
H       -4.87305046      -0.19319750      -0.68505915
H       -3.44222961      -0.54419132      -2.70218900
H       -1.29759287      -0.43006200       1.69801958
H        0.63012917      -1.22623514      -1.29963934
H        3.82529736      -0.69032690      -1.93637308
H        2.57636899       0.64530428      -1.84564562
H        2.58851397       2.20514977       0.18958546
H        3.54745277       1.81944479       1.62850672
H        4.34147643       2.45691128       0.17634031
C       -4.02535808      -0.07763876       1.94436523
H       -4.57654794       0.86897419       1.90222485
H       -4.75387025      -0.88794666       2.06365576
H       -3.39799618      -0.05738539       2.84325902
