28
Properties=species:S:1:pos:R:3 Iteration=T 34=T Energy=T -0.17815652=T pbc="F F F"
C       -3.17506235      -0.13648913       0.48430931
C       -3.48444073       0.79913997      -0.51020858
C       -2.44566079       1.51817623      -1.11593215
N       -1.15226929       1.35129648      -0.79001122
C       -0.84231180       0.44753912       0.14327604
C       -1.82321298      -0.30057681       0.81641239
N        0.51030331       0.34895780       0.45098166
C        1.22314636      -0.72489869       0.89859404
O        0.72540037      -1.78753020       1.20920981
C        2.71681955      -0.50590237       0.95546885
C        3.60584587      -1.24390783      -0.02123794
C        3.49131230       0.26592401      -0.10403166
C        2.88870420       0.89378328      -1.35896739
H        3.09259303      -0.43985498       1.97180715
H        4.34274597       0.83846588       0.25872077
H       -4.51110063       0.97671774      -0.81151907
H       -2.65707774       2.25731893      -1.88688878
H       -1.53987381      -1.00241507       1.59171800
H        1.03849932       1.14214216       0.14393989
H        4.53415669      -1.66481748       0.35749159
H        3.11938204      -1.84267015      -0.78879922
H        2.09816373       0.26943586      -1.79367227
H        2.46522862       1.88168451      -1.14189120
H        3.65926578       1.02579842      -2.12782955
C       -4.25940233      -0.93577208       1.18457060
H       -4.56883493      -0.44144097       2.11265701
H       -5.14594346      -1.04792623       0.54959709
H       -3.90636945      -1.94198874       1.43978945
