28
Properties=species:S:1:pos:R:3 Iteration=T 30=T Energy=T -611.64729238=T pbc="F F F"
C       -3.15887771      -0.17167488       0.43790624
C       -3.53559547       0.97792357      -0.26432375
C       -2.54517308       1.84210342      -0.70629616
N       -1.24258921       1.64690052      -0.50391802
C       -0.89116943       0.54828850       0.16718590
C       -1.80357854      -0.39175085       0.65819448
N        0.48996938       0.43063936       0.32308116
C        1.21129474      -0.54072020       0.96557321
O        0.71179027      -1.49847176       1.53156167
C        2.69931406      -0.31705697       0.95269807
C        3.61164208      -1.22925722       0.18817567
C        3.51130840       0.22018217      -0.20224045
C        2.93249506       0.58456668      -1.54784011
H        3.05179336      -0.03891324       1.94478821
H        4.34801068       0.84798810       0.09985157
H       -4.58155726       1.19334274      -0.46287677
H       -2.80602188       2.74452099      -1.25654899
H       -1.44081166      -1.25921960       1.19431975
H        0.99757116       1.20123151      -0.08902391
H        4.50535263      -1.59518452       0.68404759
H        3.14181748      -1.94975517      -0.47675835
H        2.11111936      -0.08099037      -1.83163202
H        2.55596595       1.61520489      -1.57631385
H        3.70616635       0.50225282      -2.31900382
C       -4.18847864      -1.13572087       0.95010956
H       -4.77773168      -0.68105221       1.75529280
H       -4.88917651      -1.42106438       0.15797720
H       -3.72484431      -2.04410972       1.34361091
