28
Properties=species:S:1:pos:R:3 Iteration=T 34=T Energy=T -0.17953083=T pbc="F F F"
C       -3.09434284      -0.19590009       0.88485173
C       -3.65234385       0.23443162      -0.32439854
C       -2.83183424       0.33844318      -1.45511928
N       -1.51953677       0.04787827      -1.43664366
C       -0.96949499      -0.34167414      -0.28368213
C       -1.72427876      -0.49472297       0.89215969
N        0.38490395      -0.65263922      -0.34692475
C        1.34240218      -0.56312446       0.62368930
O        1.10457897      -0.29390195       1.78316573
C        2.75166799      -0.84689931       0.15053477
C        3.17680815      -0.67704009      -1.30113402
C        3.62996793       0.31947120      -0.25815331
C        3.11078648       1.75318507      -0.26956814
H        3.24888957      -1.62263616       0.72471943
H        4.67095314       0.26588204       0.05436549
H       -4.70600164       0.48161748      -0.39608819
H       -3.24059267       0.66254495      -2.41077734
H       -1.25220601      -0.84371448       1.80265498
H        0.69847667      -0.82127020      -1.28177068
H        3.92154673      -1.36584978      -1.69323012
H        2.45935362      -0.32725230      -2.03975828
H        2.08994243       1.81836402      -0.66538439
H        3.10376473       2.16881883       0.74534700
H        3.74999815       2.39159535      -0.89069467
C       -3.94581296      -0.33311292       2.13458195
H       -4.35504078       0.63844415       2.43499654
H       -4.78641115      -1.01505461       1.96155568
H       -3.36614494      -0.72568004       2.97830224
