28
Properties=species:S:1:pos:R:3 Iteration=T 16=T Energy=T -611.64658468=T pbc="F F F"
C       -3.11545609      -0.34575757       0.75949888
C       -3.59981531       0.35680743      -0.34914168
C       -2.68806098       0.88765448      -1.24859298
N       -1.36629412       0.76841014      -1.12602626
C       -0.91151414       0.09586403      -0.06622272
C       -1.73905984      -0.47772362       0.90521732
N        0.48072182       0.02851351      -0.03650465
C        1.29789103      -0.59736007       0.86948214
O        0.87903247      -1.17371978       1.86152467
C        2.76601532      -0.56326862       0.59070950
C        3.32934366      -0.97314827      -0.75686197
C        3.55465936       0.41534648      -0.26204700
C        2.99615373       1.63328173      -0.96315563
H        3.29449599      -0.94906398       1.45632911
H        4.54006301       0.59448723       0.16375367
H       -4.66673181       0.48657512      -0.50626530
H       -3.03164754       1.44055731      -2.12126433
H       -1.29647746      -1.00571230       1.73963548
H        0.89516600       0.51462025      -0.81777726
H        4.14481571      -1.68995029      -0.77224779
H        2.60888572      -1.09770868      -1.56275253
H        2.26913944       1.38789479      -1.74605214
H        2.52769020       2.33536336      -0.26519414
H        3.80848829       2.16279803      -1.47140158
C       -4.05495794      -0.94298434       1.76596917
H       -4.68606001      -0.16994549       2.21930333
H       -4.72475095      -1.66941413       1.29161541
H       -3.51173370      -1.45221499       2.56606777
