28
Properties=species:S:1:pos:R:3 Iteration=T 41=T Energy=T -0.18491304=T pbc="F F F"
C       -3.21662063      -0.21753808       0.38745066
C       -3.68722128       0.97612154      -0.17259338
C       -2.77976339       2.01221536      -0.42916391
N       -1.46518229       1.91614423      -0.16568938
C       -0.99963810       0.77525898       0.34913074
C       -1.84416477      -0.30497359       0.65869675
N        0.36415004       0.75715497       0.62480700
C        1.22591141      -0.30092731       0.65007385
O        0.89284374      -1.46059257       0.50318079
C        2.65968945       0.11988817       0.85584054
C        3.76955721      -0.90228310       0.69682141
C        3.59098479       0.18583813      -0.33865639
C        3.12071755      -0.14844480      -1.75003601
H        2.79705870       0.89405408       1.60493501
H        4.32425311       0.98967772      -0.33320003
H       -4.73852597       1.10986656      -0.40327186
H       -3.11820828       2.95450051      -0.85690838
H       -1.44061956      -1.20457360       1.10772463
H        0.76512844       1.67455037       0.65052914
H        4.62387303      -0.83169259       1.36537711
H        3.49626430      -1.91919523       0.42125240
H        2.46309109      -1.02626258      -1.76614752
H        2.56937564       0.69329748      -2.18569733
H        3.97601448      -0.36448099      -2.40099114
C       -4.15496573      -1.36951284       0.69970209
H       -4.49937060      -1.31963722       1.73910092
H       -5.03777606      -1.35267636       0.05001173
H       -3.65685782      -2.33557331       0.55531743
