28
Properties=species:S:1:pos:R:3 Iteration=T 50=T Energy=T -611.64800584=T pbc="F F F"
C       -2.95592822      -0.54725202       1.09454187
C       -3.59029476       0.62434608       0.66883378
C       -2.81321904       1.65542440       0.16220962
N       -1.48644668       1.60218948       0.05089041
C       -0.88882535       0.48026560       0.45745320
C       -1.57149561      -0.62118605       0.98400200
N        0.49604722       0.51851727       0.29770289
C        1.43348190      -0.43795521       0.58847964
O        1.17040872      -1.53255322       1.05617812
C        2.84411188       0.00347620       0.30236033
C        3.71266869      -0.76649317      -0.64102095
C        3.28944507       0.63422374      -0.99624469
C        2.35930122       0.85222375      -2.16426566
H        3.33377235       0.37223066       1.20286772
H        4.05400185       1.40149099      -0.88684440
H       -4.66959292       0.72931684       0.73126727
H       -3.27737541       2.57958053      -0.17784047
H       -1.01485721      -1.49733162       1.29074126
H        0.82245639       1.39142284      -0.09381770
H        4.74159877      -0.95809086      -0.35239757
H        3.24252858      -1.57922030      -1.18910878
H        1.61093426       0.05657236      -2.23798828
H        1.82310667       1.80711881      -2.09823300
H        2.92819953       0.86180345      -3.10048952
C       -3.74089173      -1.68725581       1.67374549
H       -4.09383913      -1.43940826       2.68208466
H       -4.62506882      -1.90937399       1.06685626
H       -3.13423085      -2.59388797       1.74564106
