28
Properties=species:S:1:pos:R:3 Iteration=T 31=T Energy=T -611.65278665=T pbc="F F F"
C       -3.19644923      -0.18439204       0.61249360
C       -3.85194461      -1.13801360      -0.17306193
C       -3.10621761      -1.87835855      -1.07804757
N       -1.79226613      -1.73850773      -1.25038884
C       -1.17357752      -0.82640443      -0.49729139
C       -1.82516389      -0.02502812       0.44607923
N        0.19479718      -0.75611014      -0.75830297
C        1.14742120       0.05161730      -0.18798780
O        0.88939442       0.88436205       0.67007325
C        2.49878569      -0.12637441      -0.78939123
C        3.20151934       1.15638911      -1.20887731
C        3.76991388       0.34267668      -0.10377141
C        3.81545977       0.82988404       1.32129014
H        2.60839146      -0.97506152      -1.46037649
H        4.62601078      -0.26894857      -0.38643424
H       -4.92234080      -1.29815011      -0.08149685
H       -3.58557509      -2.62774023      -1.70558659
H       -1.25813035       0.69627766       1.01966201
H        0.47853529      -1.41224169      -1.47346325
H        3.68991726       1.17454640      -2.17857202
H        2.68510385       2.07085809      -0.92937964
H        2.92287754       1.40528488       1.56910651
H        3.87845720      -0.01315944       2.01806965
H        4.70148098       1.45750604       1.47007822
C       -3.94756738       0.64153099       1.61535318
H       -4.81993122       1.12053492       1.15742922
H       -4.31597169       0.01560597       2.43676774
H       -3.31292739       1.42161823       2.04362239
