28
Properties=species:S:1:pos:R:3 Iteration=T 32=T Energy=T -0.18255832=T pbc="F F F"
C       -3.16880092      -0.34301974       0.29958807
C       -3.55631910       0.79189873      -0.42204033
C       -2.59558027       1.76283762      -0.73355566
N       -1.30458407       1.65675701      -0.37470196
C       -0.91715257       0.56864139       0.29563513
C       -1.81941241      -0.44267156       0.66781635
N        0.42484074       0.53721045       0.65971969
C        1.24413729      -0.53895229       0.84076081
O        0.88092825      -1.69693372       0.79303755
C        2.68285472      -0.15120283       1.05384087
C        3.77882994      -0.97590895       0.41287401
C        3.48830482       0.42238249      -0.09519979
C        2.90042867       0.62741699      -1.48772225
H        2.88540710       0.26810224       2.03453078
H        4.21280091       1.19307374       0.16014264
H       -4.58535567       0.92894401      -0.73624963
H       -2.87017130       2.65928298      -1.28708209
H       -1.47582695      -1.29731853       1.23823314
H        0.86175112       1.43735681       0.61454554
H        4.69286361      -1.13248637       0.98032688
H        3.48035283      -1.82080179      -0.20502701
H        2.22196187      -0.18756573      -1.76909484
H        2.33743092       1.56700031      -1.53997905
H        3.69653514       0.67055687      -2.24034053
C       -4.17622887      -1.41749456       0.66859102
H       -4.95258971      -1.01379793       1.32877102
H       -4.66741805      -1.81525144      -0.22706452
H       -3.69998227      -2.25784986       1.18723847
