28
Properties=species:S:1:pos:R:3 Iteration=T 12=T Energy=T -611.65516750=T pbc="F F F"
C       -3.15841600      -0.33040350       0.53594677
C       -3.79126420       0.89031617       0.79463094
C       -3.00963757       2.02531040       0.94521997
N       -1.67945553       2.02960065       0.86114271
C       -1.08302040       0.86177293       0.61502933
C       -1.77110784      -0.34444181       0.44301842
N        0.30571121       0.97329299       0.54951153
C        1.24746422       0.00316619       0.31952491
O        0.97092681      -1.17169404       0.11850003
C        2.64379352       0.52072955       0.32869801
C        3.75396954      -0.47699328       0.54054288
C        3.59802808       0.14805123      -0.80139335
C        3.15562728      -0.64284462      -2.00368947
H        2.77827951       1.51469527       0.74920446
H        4.30333240       0.94676971      -1.02586795
H       -4.87266512       0.95297092       0.87539991
H       -3.47134205       2.99058211       1.14576125
H       -1.21706118      -1.25212665       0.24234566
H        0.61711463       1.92482850       0.69136869
H        4.58204097      -0.18209995       1.17792533
H        3.42004927      -1.50558600       0.64773743
H        2.41277950      -1.39558903      -1.72995625
H        2.71511978       0.01213610      -2.76388560
H        4.01517419      -1.15118743      -2.45484932
C       -3.95462344      -1.59048957       0.36211324
H       -4.54201302      -1.80817865       1.26144131
H       -4.66149665      -1.49408152      -0.46984427
H       -3.30730595      -2.44830482       0.16202151
