28
Properties=species:S:1:pos:R:3 Iteration=T 34=T Energy=T -0.18108188=T pbc="F F F"
C       -3.22380184      -0.26153035       0.67759414
C       -3.91786876      -0.91866535      -0.34529647
C       -3.19427725      -1.50012987      -1.39458652
N       -1.85310783      -1.45538029      -1.47216917
C       -1.17973007      -0.81204499      -0.51497308
C       -1.82561875      -0.22233804       0.58576898
N        0.20610397      -0.83495680      -0.64346417
C        1.13403362       0.06139006      -0.19423240
O        0.85322146       1.04575449       0.46018030
C        2.53627781      -0.26370073      -0.67085775
C        3.30504603       0.85941447      -1.34718116
C        3.78959448       0.31645378      -0.02725460
C        3.77996206       1.18144740       1.22944523
H        2.64338075      -1.25018332      -1.11258886
H        4.66503966      -0.32893807      -0.05428308
H       -5.00017260      -0.98783202      -0.33263254
H       -3.70656336      -2.02480245      -2.19938108
H       -1.24899780       0.26113767       1.36507960
H        0.52056983      -1.54778766      -1.27229453
H        3.88260432       0.61911011      -2.23639385
H        2.85666804       1.85126931      -1.35448061
H        3.08768127       2.02721826       1.14627689
H        3.49131086       0.59053379       2.10662503
H        4.77665134       1.59759483       1.41696482
C       -3.95312613       0.37513781       1.84711085
H       -4.97506968       0.66133623       1.57242180
H       -4.01254385      -0.31946216       2.69295251
H       -3.43726291       1.28015178       2.18924784
