28
Properties=species:S:1:pos:R:3 Iteration=T 35=T Energy=T -0.17950402=T pbc="F F F"
C       -3.07578837       0.10720525       0.61368270
C       -3.67678995       0.10725251      -0.65063556
C       -2.87884243      -0.09701227      -1.78373664
N       -1.55153721      -0.29872125      -1.71781252
C       -0.96866991      -0.32441749      -0.51647400
C       -1.69116114      -0.10396142       0.66941422
N        0.41103004      -0.50559077      -0.53305900
C        1.24182800      -1.00691166       0.43003636
O        0.86404350      -1.34951662       1.53137668
C        2.69648753      -1.13443321       0.02392360
C        3.27001551      -0.47157542      -1.22161933
C        3.60274823       0.07579171       0.14775479
C        3.08161529       1.43639509       0.59796118
H        3.14142450      -2.07685681       0.32876473
H        4.60508400      -0.11860382       0.52443174
H       -4.74350490       0.26781597      -0.76335017
H       -3.31719928      -0.09384410      -2.78035396
H       -1.18566132      -0.09411588       1.62732497
H        0.80514786      -0.35601741      -1.44020900
H        4.05785177      -0.99862871      -1.75498235
H        2.63392779       0.13797047      -1.85856499
H        2.11633785       1.68219675       0.13984624
H        2.95246387       1.45875820       1.68681750
H        3.78863232       2.22937419       0.32705279
C       -3.88741960       0.33700346       1.87603514
H       -3.87483575       1.39585194       2.15909567
H       -4.93266563       0.03629662       1.73903328
H       -3.48455288      -0.24150838       2.71583431
