28   
Iteration 0 Energy -0.17879197
C       -3.0987564800   -0.4051334300    0.5998147200
C       -3.7450149400    0.8340010600    0.6676058200
C       -2.9735168200    1.9855124400    0.6924934100
N       -1.6409872800    1.9895378100    0.6582340200
C       -1.0318319800    0.8041676300    0.5949417800
C       -1.7091426900   -0.4200043900    0.5617123900
N        0.3579940600    0.9144447100    0.5630279800
C        1.3079546700   -0.0729522900    0.5054707300
O        1.0431750200   -1.2644828400    0.4379726800
C        2.7024074900    0.4572017200    0.4581944600
C        3.8343420800   -0.5217128100    0.3776854500
C        3.4942334900    0.2842406800   -0.8331630500
C        2.8860418400   -0.3523745100   -2.0550754700
H        2.8672329400    1.3907499500    0.9924062900
H        4.1571353500    1.1219437300   -1.0435112800
H       -4.8288838400    0.8982745300    0.6994404900
H       -3.4456229600    2.9650889100    0.7438192600
H       -1.1452158800   -1.3420044900    0.5058204100
H        0.6670970400    1.8773892100    0.5833876100
H        4.7406996100   -0.2958230200    0.9308559300
H        3.5314735600   -1.5652251300    0.3789472100
H        2.1919536800   -1.1523128300   -1.7818563800
H        2.3381925200    0.3841455500   -2.6540966100
H        3.6695159500   -0.7842705900   -2.6876668500
C       -3.8831523200   -1.6838897200    0.5631694500
H       -4.5378106700   -1.7673241900    1.4379930400
H       -4.5246571600   -1.7226437900   -0.3247959000
H       -3.2248548700   -2.5563417700    0.5447706300
28   
Iteration 1 Energy -0.18089465
C       -3.1649129292   -0.4036066832    0.6117724634
C       -3.7627190010    0.8588893527    0.6756103357
C       -2.9450767716    1.9798552425    0.6915074048
N       -1.6118448424    1.9290058825    0.6518907673
C       -1.0377578756    0.7246818767    0.5921821930
C       -1.7750032126   -0.4689762924    0.5684293032
N        0.3574651717    0.7974718742    0.5548527933
C        1.3472509831   -0.1519431319    0.4987370855
O        1.1695709978   -1.3579130587    0.4350022225
C        2.7111803630    0.4593135683    0.4495481860
C        3.9023672577   -0.4505278762    0.3730384359
C        3.5153631324    0.3329466171   -0.8406188138
C        2.9504811897   -0.3404076938   -2.0668267621
H        2.8190271988    1.4019422501    0.9816435351
H        4.1262635453    1.2090130655   -1.0513756385
H       -4.8428367261    0.9659335800    0.7113189385
H       -3.3773437861    2.9778423639    0.7395845033
H       -1.2589185455   -1.4171211156    0.5153225382
H        0.6600808698    1.7608252743    0.5707548166
H        4.7925474599   -0.1675959481    0.9267221925
H        3.6661298295   -1.5113861497    0.3766430914
H        2.3053058982   -1.1822937548   -1.7992872341
H        2.3609549075    0.3621491494   -2.6671497751
H        3.7612132224   -0.7230809777   -2.6969162564
C       -3.9984286574   -1.6535663426    0.5847549023
H       -4.6520007980   -1.7076268781    1.4627635357
H       -4.6443392778   -1.6723793967   -0.3006696036
H       -3.3740181947   -2.5512426695    0.5683630559
28   
Iteration 2 Energy -0.18220796
C       -3.2177803989   -0.4060416209    0.6437701597
C       -3.8034751032    0.8616708786    0.7106094298
C       -3.0032844609    2.0076216365    0.7106736333
N       -1.6634895440    1.9444626845    0.6477799740
C       -1.0536212360    0.7558978933    0.5820972712
C       -1.8190047976   -0.4276085808    0.5786265448
N        0.3398373125    0.8228240503    0.5200406704
C        1.2904352738   -0.1591492731    0.4492135258
O        1.0328973299   -1.3478019725    0.4324767879
C        2.6944791785    0.4054617459    0.4231348098
C        3.9236254899   -0.4848086113    0.3956461666
C        3.5632358556    0.3153262040   -0.8292499216
C        3.1026836261   -0.3285059304   -2.1326991605
H        2.7827650298    1.3447523849    0.9608558232
H        4.1644607419    1.2029440211   -1.0137220280
H       -4.8817673030    0.9662232195    0.7628962826
H       -3.4446010286    3.0016213901    0.7623613713
H       -1.3285955419   -1.3884860359    0.5243414600
H        0.6632292589    1.7713785993    0.5260328292
H        4.7888155019   -0.1550837750    0.9655778402
H        3.7639398118   -1.5613590144    0.3876500619
H        2.4752333553   -1.2129418785   -1.9819532579
H        2.5327301873    0.3872705017   -2.7367179652
H        3.9698311916   -0.6475345529   -2.7227730914
C       -4.0514786149   -1.6715656606    0.6388266682
H       -4.6855575350   -1.7238595438    1.5315403150
H       -4.7092151947   -1.7002630065   -0.2376555511
H       -3.4263273785   -2.5722437465    0.6182172732
28   
Iteration 3 Energy -0.18384825
C       -3.1762682514   -0.3952552318    0.6361183299
C       -3.8006377219    0.8556628814    0.6958134474
C       -3.0030267550    2.0073703594    0.6952059436
N       -1.6609565706    1.9569393271    0.6381901196
C       -1.0546527051    0.7670243432    0.5803402836
C       -1.7745746828   -0.4447652577    0.5764036609
N        0.3363935590    0.8419428645    0.5237032295
C        1.2865856585   -0.1377364738    0.4583852324
O        1.0675316898   -1.3327370831    0.4408161493
C        2.6886413787    0.4355057332    0.4309821187
C        3.8767995524   -0.5146043066    0.3855850133
C        3.5427506025    0.3367201117   -0.8199971347
C        3.0625409306   -0.3193102142   -2.1132014211
H        2.8020181182    1.3607459039    0.9877471315
H        4.1756944563    1.1990407157   -1.0181925442
H       -4.8803885342    0.9430719671    0.7423347302
H       -3.4518616289    2.9982999297    0.7411995929
H       -1.2804258507   -1.4051084346    0.5296803218
H        0.6580537759    1.7890673802    0.5271370560
H        4.7596908590   -0.2423161815    0.9592392073
H        3.6780129794   -1.5843252815    0.3476541440
H        2.4242725230   -1.1928410561   -1.9365446709
H        2.4946193875    0.3949401678   -2.7210430237
H        3.9175270536   -0.6602799448   -2.7089705373
C       -4.0075167580   -1.6674646172    0.6349195475
H       -4.6425192412   -1.7183081399    1.5271175298
H       -4.6598266581   -1.7048228721   -0.2452700160
H       -3.3784764069   -2.5662548495    0.6222444621
28   
Iteration 4 Energy -0.18398048
C       -3.1724786226   -0.4053556124    0.6212491279
C       -3.7913118132    0.8485709049    0.6816212316
C       -2.9919064495    1.9981656957    0.6910344279
N       -1.6495114777    1.9776228921    0.6446700485
C       -1.0419901506    0.7896697969    0.5868718985
C       -1.7702883738   -0.4147109728    0.5730950740
N        0.3490344997    0.8559581498    0.5404539962
C        1.3117558291   -0.1113003741    0.4759060567
O        1.0845188017   -1.3046924916    0.4412826199
C        2.7119840138    0.4546503689    0.4420835288
C        3.8799070410   -0.5142810057    0.3819396409
C        3.5350819545    0.3309437804   -0.8235983813
C        2.9965361731   -0.3286164145   -2.0877051648
H        2.8480720786    1.3751776394    1.0025171622
H        4.1879389258    1.1721154974   -1.0476436284
H       -4.8714763348    0.9388433286    0.7209328149
H       -3.4499076137    2.9848110295    0.7376708334
H       -1.2569105913   -1.3659395135    0.5255019539
H        0.6684294380    1.8052332350    0.5500210425
H        4.7758624224   -0.2701979334    0.9472133140
H        3.6532740380   -1.5781195768    0.3440342553
H        2.3443722234   -1.1801305610   -1.8584434761
H        2.4208084032    0.3876610386   -2.6856342712
H        3.8191291965   -0.7011870903   -2.7093859624
C       -3.9868796732   -1.6873088343    0.6080041273
H       -4.6276545856   -1.7513392974    1.4951129536
H       -4.6314525767   -1.7300274971   -0.2776082552
H       -3.3449360034   -2.5760144220    0.5964009819
28   
Iteration 5 Energy -0.18425417
C       -3.1735009440   -0.4023072151    0.6234179714
C       -3.7847809278    0.8546108412    0.6851395022
C       -2.9903815254    2.0071357972    0.6942734552
N       -1.6484291251    1.9631305645    0.6456465524
C       -1.0470960008    0.7716487439    0.5866349903
C       -1.7723598586   -0.4347915620    0.5729222669
N        0.3442779270    0.8407523086    0.5388807040
C        1.3031366982   -0.1306134699    0.4711431934
O        1.0796373505   -1.3247383184    0.4380928895
C        2.7018709133    0.4390447493    0.4404253881
C        3.8965400185   -0.4962238397    0.3895477408
C        3.5330359593    0.3265177164   -0.8243141216
C        3.0089549408   -0.3301544935   -2.0961363098
H        2.8214490845    1.3632930650    0.9983959961
H        4.1725130204    1.1785908866   -1.0455106661
H       -4.8649328377    0.9452437816    0.7259494770
H       -3.4418144565    2.9967597510    0.7417354771
H       -1.2655301945   -1.3891502913    0.5242968615
H        0.6646913846    1.7900390045    0.5490759840
H        4.7846423687   -0.2186599637    0.9515760127
H        3.7023223256   -1.5666327924    0.3582842137
H        2.3706747700   -1.1950811236   -1.8797608331
H        2.4231504978    0.3822657567   -2.6888390401
H        3.8401864291   -0.6819701334   -2.7183646985
C       -4.0012592431   -1.6750695569    0.6111255681
H       -4.6414037182   -1.7326619863    1.4991023979
H       -4.6475029519   -1.7109288045   -0.2735627504
H       -3.3680911408   -2.5698475387    0.5984197139
28   
Iteration 6 Energy -0.18424415
C       -3.1755313845   -0.3963695006    0.6270192773
C       -3.8018271458    0.8531114921    0.6856140865
C       -2.9998609765    2.0009022047    0.6908179831
N       -1.6571981805    1.9632355001    0.6419495073
C       -1.0439627959    0.7775496357    0.5857324059
C       -1.7739482864   -0.4266809634    0.5761473717
N        0.3472948305    0.8525307991    0.5374779659
C        1.2984832539   -0.1262716956    0.4696290766
O        1.0712918836   -1.3194734551    0.4401704803
C        2.7002979532    0.4380465247    0.4395763160
C        3.8857518226   -0.5100477583    0.3875587717
C        3.5373225179    0.3260970806   -0.8222019477
C        3.0204889718   -0.3257436531   -2.1008868361
H        2.8252512608    1.3581028369    1.0029739541
H        4.1869043605    1.1722894992   -1.0361420000
H       -4.8821032892    0.9410076590    0.7264680226
H       -3.4506729091    2.9909443416    0.7356865229
H       -1.2708837709   -1.3828730154    0.5304318326
H        0.6690608589    1.8009447499    0.5457223267
H        4.7762093626   -0.2374520207    0.9484892424
H        3.6866095500   -1.5794073171    0.3481124881
H        2.3817056332   -1.1932013232   -1.8973670017
H        2.4383476608    0.3898548717   -2.6934066004
H        3.8563693378   -0.6731597734   -2.7193970360
C       -3.9948414172   -1.6751919837    0.6184644118
H       -4.6342564056   -1.7346223028    1.5068699852
H       -4.6407285162   -1.7180118889   -0.2661758969
H       -3.3555733997   -2.5659086661    0.6082632107
28   
Iteration 7 Energy -0.18431718
C       -3.1742300651   -0.4015985575    0.6264239104
C       -3.7914797557    0.8525746805    0.6824368200
C       -2.9962545344    2.0050841196    0.6872047294
N       -1.6536808645    1.9649885981    0.6395929671
C       -1.0463410884    0.7762784023    0.5856741508
C       -1.7725067177   -0.4301511832    0.5769838853
N        0.3449575285    0.8484133681    0.5386084296
C        1.3018396571   -0.1246987740    0.4711172755
O        1.0749620541   -1.3179326317    0.4406363850
C        2.7020599870    0.4428740173    0.4405858204
C        3.8832124351   -0.5103905690    0.3852969646
C        3.5368578690    0.3307386535   -0.8218597611
C        3.0166688949   -0.3229335401   -2.0981163653
H        2.8291454103    1.3606493937    1.0072613147
H        4.1904629744    1.1735913833   -1.0368303772
H       -4.8717245076    0.9413269736    0.7221341990
H       -3.4492063951    2.9942240831    0.7303375859
H       -1.2668036178   -1.3851577673    0.5331966508
H        0.6650604715    1.7973938326    0.5467432633
H        4.7754943335   -0.2440162242    0.9463334425
H        3.6802058614   -1.5788518290    0.3413831172
H        2.3801081059   -1.1911808951   -1.8906762580
H        2.4309118105    0.3910473742   -2.6890238222
H        3.8507286557   -0.6696081171   -2.7194968387
C       -3.9977444029   -1.6778591099    0.6192474619
H       -4.6381062312   -1.7336809270    1.5072083740
H       -4.6429052805   -1.7200202030   -0.2659566277
H       -3.3616918640   -2.5709026424    0.6111512273
