28
Properties=species:S:1:pos:R:3 Iteration=T 22=T Energy=T -0.17841683=T pbc="F F F"
C       -3.22712550       0.18050875       0.76049873
C       -3.96455944      -0.02909605      -0.41046593
C       -3.30616463      -0.49352054      -1.55650406
N       -1.98656819      -0.74691217      -1.59062151
C       -1.26673045      -0.52964820      -0.48691634
C       -1.85162498      -0.08752529       0.71257101
N        0.08552220      -0.84385129      -0.58549565
C        1.14938692      -0.30991061       0.08337953
O        1.04514471       0.51617148       0.96750306
C        2.47082906      -0.85188395      -0.41748280
C        3.22145086      -0.01913621      -1.44075652
C        3.81656004      -0.23011013      -0.06948496
C        3.99766164       0.94887274       0.88111649
H        2.46334235      -1.92300117      -0.59681629
H        4.64688777      -0.92922545       0.00410004
H       -5.03264812       0.15742549      -0.43868034
H       -3.85574374      -0.67335301      -2.47901895
H       -1.24475697       0.04510164       1.60010595
H        0.28652400      -1.44007746      -1.36458755
H        3.68705565      -0.53414457      -2.27756848
H        2.83048653       0.96839851      -1.67823334
H        3.29269586       1.76138921       0.66852912
H        3.84828880       0.63530901       1.92113921
H        5.00925895       1.36233445       0.79531733
C       -3.89692075       0.67086894       2.03186041
H       -4.56130319       1.51756192       1.82343198
H       -4.49665501      -0.12533227       2.48776844
H       -3.16029541       1.00298747       2.77291872
