28
Properties=species:S:1:pos:R:3 Iteration=T 56=T Energy=T -611.65119098=T pbc="F F F"
C       -3.11180979      -0.37977989       0.12025123
C       -3.64060572       0.89577245      -0.10530270
C       -2.78535860       1.98664319      -0.06641330
N       -1.47753504       1.89988969       0.17597663
C       -0.98142034       0.68026115       0.39166084
C       -1.74963107      -0.48877752       0.37627458
N        0.39225271       0.68918215       0.63201044
C        1.23851058      -0.36012806       0.88651291
O        0.88868534      -1.52878504       0.89858877
C        2.65846860       0.08792813       1.08113737
C        3.77045870      -0.82916281       0.69593118
C        3.49438716       0.38167035      -0.14968830
C        2.90650097       0.23011352      -1.52885746
H        2.80614905       0.74650723       1.93564391
H        4.19164771       1.21031469      -0.03912431
H       -4.69881775       1.03454239      -0.30722854
H       -3.16620958       2.99195864      -0.23800182
H       -1.27195896      -1.44255864       0.55859472
H        0.78846771       1.61939259       0.59641079
H        4.65925036      -0.84693837       1.31883762
H        3.46779631      -1.79590390       0.30259095
H        2.21899525      -0.62139140      -1.57396723
H        2.34882857       1.12451610      -1.83016000
H        3.69662019       0.06002991      -2.26836528
C       -3.98521003      -1.59892979       0.07615997
H       -4.85417029      -1.48613333       0.73381786
H       -4.36736606      -1.76628322      -0.93780602
H       -3.43692236      -2.49375620       0.38212517
