28   
Iteration 0 Energy -0.17097597
C       -3.1295003600   -0.3432168600    0.6272205500
C       -3.5976851000    0.7296102100   -0.1389087200
C       -2.6743172100    1.5969456000   -0.7028034900
N       -1.3548528300    1.4732153600   -0.5626034000
C       -0.9159588700    0.4469721800    0.1691148800
C       -1.7554343400   -0.4871762800    0.7851650500
N        0.4759100500    0.4031342400    0.2510894500
C        1.2762610600   -0.4760843700    0.9307407300
O        0.8520759900   -1.3910083200    1.6166536800
C        2.7537830700   -0.2265929400    0.8050780600
C        3.6103232500   -1.0677808900   -0.1010399300
C        3.4967173800    0.4096345300   -0.3470191800
C        2.8590383900    0.9012927000   -1.6240441200
H        3.1826444000   -0.0484477300    1.7891737000
H        4.3525545700    1.0048179200   -0.0329870000
H       -4.6619294100    0.8863806900   -0.2895737700
H       -3.0065078900    2.4428655400   -1.3021616100
H       -1.3236484600   -1.2890375900    1.3698582100
H        0.9175869000    1.1666035900   -0.2415094400
H        4.5280896700   -1.4836019100    0.3033845800
H        3.0949387300   -1.7198805000   -0.8024564100
H        2.0433580000    0.2489783000   -1.9510759900
H        2.4659616000    1.9220762800   -1.5307322800
H        3.6051440900    0.9186904500   -2.4259259600
C       -4.0819547100   -1.3150981200    1.2596264300
H       -4.8217114400   -0.7943879800    1.8777766300
H       -4.6347883600   -1.8727010400    0.4945491600
H       -3.5560972900   -2.0360011300    1.8910076400
28   
Iteration 1 Energy -0.17296290
C       -3.1544209978   -0.3347206861    0.6152876862
C       -3.5690278539    0.7491255605   -0.1645909855
C       -2.6024758384    1.5851996837   -0.7059683399
N       -1.2903245239    1.4178334139   -0.5291677280
C       -0.8909511958    0.3828524600    0.2150332383
C       -1.7876072823   -0.5185803620    0.8075648070
N        0.5007390703    0.3090195773    0.3241875737
C        1.3481743830   -0.5386216953    0.9896712903
O        1.0117430247   -1.4716709847    1.6963753869
C        2.8070580130   -0.2172255476    0.8118107346
C        3.6693272417   -1.0227376843   -0.1218246176
C        3.4730988321    0.4477969379   -0.3715977685
C        2.7633978723    0.8988973413   -1.6276237395
H        3.2628156328   -0.0110543883    1.7778111878
H        4.3089556794    1.0880459266   -0.0948082198
H       -4.6231313696    0.9392591284   -0.3436847387
H       -2.8907559103    2.4396513959   -1.3158965193
H       -1.4088899177   -1.3347963506    1.4063716598
H        0.9361975361    1.0720675653   -0.1715245952
H        4.6212656403   -1.3901732501    0.2499031609
H        3.1607651984   -1.7045160244   -0.7997339255
H        1.9690711135    0.2048690662   -1.9208297004
H        2.3243053154    1.8993940395   -1.5227213662
H        3.4767022077    0.9480916197   -2.4577702349
C       -4.1535488182   -1.2762510175    1.2261005749
H       -4.8922698418   -0.7309413186    1.8240995341
H       -4.7033457345   -1.8189468155    0.4482514673
H       -3.6668665700   -2.0116656486    1.8728715923
28   
Iteration 2 Energy -0.17315505
C       -3.1203138086   -0.3346492316    0.5938114635
C       -3.5222754088    0.7528745149   -0.1878455122
C       -2.5711628694    1.6192897113   -0.7334641138
N       -1.2543333636    1.4503841023   -0.5362315959
C       -0.8198863472    0.4263748184    0.2062141642
C       -1.7393072392   -0.4757182512    0.7752536423
N        0.5671972213    0.3535308767    0.3362280611
C        1.3789964165   -0.5131260084    1.0133357717
O        0.9612411752   -1.4459993870    1.6689322096
C        2.8568948784   -0.2355765368    0.8786951416
C        3.6621391625   -1.0438087075   -0.1101552049
C        3.4250537468    0.4323788076   -0.3615778101
C        2.6201460736    0.8632808259   -1.5810420870
H        3.3507606924   -0.0228198487    1.8221238513
H        4.2625126764    1.1016726070   -0.1739773765
H       -4.5750163837    0.9327307646   -0.3772932817
H       -2.8697849721    2.4695731067   -1.3444376648
H       -1.3857049747   -1.3050210613    1.3710819075
H        1.0242409017    1.1019291865   -0.1493812413
H        4.6448584398   -1.3881257414    0.2035359806
H        3.1238231101   -1.7426039373   -0.7472357002
H        1.8168290587    0.1564102164   -1.8219387760
H        2.1756793600    1.8545494715   -1.4313214718
H        3.2705003991    0.9248707605   -2.4617755659
C       -4.1218277099   -1.2964255884    1.1999100575
H       -4.8666533986   -0.7586339442    1.7980305566
H       -4.6574564238   -1.8444579856    0.4160846157
H       -3.6371493441   -2.0326816254    1.8520364945
28   
Iteration 3 Energy -0.17507155
C       -3.1330624897   -0.3358240435    0.6038914207
C       -3.5550713220    0.7474552333   -0.1740886999
C       -2.6057188316    1.6156110462   -0.7239265555
N       -1.2860528682    1.4521355980   -0.5349191764
C       -0.8493280338    0.4282488527    0.2056507575
C       -1.7513401187   -0.4845434972    0.7858573405
N        0.5378645970    0.3603494936    0.3273611882
C        1.3585826500   -0.5013541464    0.9978792679
O        0.9377432087   -1.4318629154    1.6535878713
C        2.8443450871   -0.2361463113    0.8688668037
C        3.6612173202   -1.0511056655   -0.1078144003
C        3.4556677791    0.4282050086   -0.3622594848
C        2.6976989084    0.8783234324   -1.6086026059
H        3.3239138279   -0.0311592143    1.8210283010
H        4.2988167906    1.0833894952   -0.1518879886
H       -4.6100203924    0.9214342016   -0.3558950876
H       -2.9096106997    2.4651603426   -1.3333265399
H       -1.3928968932   -1.3133705508    1.3799377170
H        0.9885332736    1.1095757375   -0.1607634982
H        4.6335216850   -1.4029607159    0.2294006096
H        3.1314968929   -1.7453876740   -0.7570161164
H        1.8903785819    0.1881811436   -1.8823005814
H        2.2674352511    1.8773832901   -1.4695612604
H        3.3785659828    0.9306554911   -2.4666703390
C       -4.1304082182   -1.3009273517    1.2155824889
H       -4.8731394015   -0.7647502038    1.8177845277
H       -4.6684327173   -1.8503449378    0.4343976666
H       -3.6406987964   -2.0361692136    1.8654028602
28   
Iteration 4 Energy -0.17496056
C       -3.1198921499   -0.3315975636    0.6066830443
C       -3.5611980767    0.7429460173   -0.1741770983
C       -2.6064501721    1.6037473658   -0.7277807487
N       -1.2829647219    1.4575052864   -0.5524959136
C       -0.8595698554    0.4338994889    0.1939076239
C       -1.7383650728   -0.4880348496    0.7922085282
N        0.5265139860    0.3633649206    0.3141299297
C        1.3149663198   -0.5188972873    0.9959918900
O        0.9553820709   -1.4624231364    1.6685402642
C        2.7968698753   -0.2377160074    0.8560466301
C        3.6266460475   -1.0534206559   -0.1123830848
C        3.4483031002    0.4294586824   -0.3539277583
C        2.7273298888    0.8978424167   -1.6162026724
H        3.2649439584   -0.0417895491    1.8159866119
H        4.2970197286    1.0696719188   -0.1209553513
H       -4.6176760943    0.9128036366   -0.3519020646
H       -2.9154279027    2.4490752717   -1.3404310720
H       -1.3644049587   -1.3091241726    1.3893717330
H        0.9913829442    1.1028885823   -0.1758691597
H        4.5941856777   -1.4070726810    0.2356275002
H        3.1036048024   -1.7449929050   -0.7696969122
H        1.9223491292    0.2149563967   -1.9131452377
H        2.3003758539    1.8989448305   -1.4806218657
H        3.4300841039    0.9506742207   -2.4562318172
C       -4.1126724198   -1.2961053964    1.2287227916
H       -4.8534614566   -0.7588968758    1.8322397843
H       -4.6518346026   -1.8530493576    0.4536784247
H       -3.6160390870   -2.0244564006    1.8802825199
28   
Iteration 5 Energy -0.17575193
C       -3.1356828347   -0.3352976346    0.6112323260
C       -3.5684777087    0.7409690462   -0.1713279914
C       -2.6149573491    1.6023802942   -0.7268639654
N       -1.2918007898    1.4515917495   -0.5488998166
C       -0.8652378417    0.4292070788    0.1977686291
C       -1.7530694339   -0.4867301008    0.7927650245
N        0.5206532792    0.3558629120    0.3193594990
C        1.3293674446   -0.5139670065    0.9929754457
O        0.9419304086   -1.4505631524    1.6596569523
C        2.8113611404   -0.2345859354    0.8526500362
C        3.6385756315   -1.0533854382   -0.1154376560
C        3.4646531114    0.4312743758   -0.3560667430
C        2.7474115548    0.9016790347   -1.6201152457
H        3.2802619676   -0.0396420514    1.8123693528
H        4.3147744582    1.0695852640   -0.1230436105
H       -4.6243327988    0.9131748811   -0.3503669950
H       -2.9228482503    2.4476109299   -1.3402040860
H       -1.3828040942   -1.3086857402    1.3909278467
H        0.9788717302    1.0973308138   -0.1737123712
H        4.6054120778   -1.4092834330    0.2323675298
H        3.1139614465   -1.7440751501   -0.7724185025
H        1.9416838268    0.2205189413   -1.9193565661
H        2.3225165432    1.9036202832   -1.4845700354
H        3.4520925480    0.9533333842   -2.4586389237
C       -4.1300814058   -1.2986562979    1.2339501717
H       -4.8702278944   -0.7601641097    1.8371457128
H       -4.6694759637   -1.8557242767    0.4591557867
H       -3.6345298938   -2.0271764559    1.8862947190
28   
Iteration 6 Energy -0.17583589
C       -3.1332977871   -0.3345050409    0.6103239992
C       -3.5664976655    0.7386340356   -0.1756218625
C       -2.6153851242    1.6022798061   -0.7331138042
N       -1.2938407441    1.4435913867   -0.5445928406
C       -0.8630918018    0.4249866103    0.2054786946
C       -1.7521573746   -0.4906581015    0.8002942270
N        0.5228739075    0.3563449346    0.3291094595
C        1.3374840766   -0.5106938006    0.9987479802
O        0.9390939364   -1.4480363561    1.6574692081
C        2.8190048326   -0.2324520509    0.8570250871
C        3.6340375868   -1.0537878581   -0.1192580787
C        3.4632605928    0.4341256388   -0.3545073720
C        2.7458244899    0.9043614974   -1.6192305911
H        3.2955689832   -0.0426648481    1.8138884155
H        4.3181197799    1.0692719697   -0.1303905828
H       -4.6224311865    0.9074328931   -0.3568736060
H       -2.9201774094    2.4460427640   -1.3500317390
H       -1.3906709751   -1.3137043905    1.4018376690
H        0.9787418736    1.0965966178   -0.1673153793
H        4.6044017255   -1.4125132712    0.2159627212
H        3.0998391129   -1.7421821914   -0.7709657452
H        1.9440882875    0.2202775955   -1.9230316678
H        2.3163992396    1.9037835644   -1.4800213747
H        3.4516836517    0.9618383335   -2.4564773492
C       -4.1319285575   -1.2956515134    1.2319699528
H       -4.8732004430   -0.7546504692    1.8315832119
H       -4.6680530780   -1.8550894377    0.4566290587
H       -3.6396890394   -2.0227761158    1.8887087848
28   
Iteration 7 Energy -0.17585995
C       -3.1401392814   -0.3360159325    0.6129845162
C       -3.5726941238    0.7342491785   -0.1773681627
C       -2.6191345958    1.5949087069   -0.7354518163
N       -1.2961525204    1.4451328159   -0.5500333930
C       -0.8628456880    0.4304231201    0.2034456245
C       -1.7569132454   -0.4803486304    0.7978928676
N        0.5227050153    0.3612532262    0.3304260513
C        1.3358473153   -0.5086909996    0.9979645867
O        0.9350996709   -1.4475297791    1.6530951275
C        2.8174024548   -0.2328692137    0.8563649054
C        3.6263938224   -1.0565385886   -0.1228855266
C        3.4669019144    0.4342720171   -0.3510473417
C        2.7599489822    0.9107162825   -1.6193066525
H        3.2956218729   -0.0520352795    1.8141432301
H        4.3278507146    1.0606569507   -0.1255409398
H       -4.6281889272    0.9028900498   -0.3613419189
H       -2.9260287613    2.4356703905   -1.3554133517
H       -1.3932404182   -1.3002725822    1.4024729044
H        0.9803870733    1.0992387651   -0.1677661872
H        4.5961682729   -1.4218604548    0.2068435156
H        3.0856058368   -1.7395843787   -0.7748184629
H        1.9615900240    0.2273705179   -1.9335808633
H        2.3283265495    1.9089213465   -1.4781229236
H        3.4728007553    0.9733487025   -2.4502360066
C       -4.1341472539   -1.2989523824    1.2397892102
H       -4.8766528622   -0.7587035575    1.8385516082
H       -4.6683999796   -1.8643063877    0.4674511443
H       -3.6381117564   -2.0211414759    1.8990848478
28   
Iteration 8 Energy -0.17588687
C       -3.1364310783   -0.3360724900    0.6132005717
C       -3.5628192424    0.7335666784   -0.1815707264
C       -2.6093579341    1.5925360879   -0.7411409956
N       -1.2874650569    1.4414529370   -0.5529165769
C       -0.8638492293    0.4260408660    0.2047644358
C       -1.7546639232   -0.4846815765    0.8031697550
N        0.5213347590    0.3549522214    0.3349232874
C        1.3374912380   -0.5146588143    0.9994697926
O        0.9412496532   -1.4551658823    1.6553503060
C        2.8177858130   -0.2346204129    0.8562082837
C        3.6274072178   -1.0529702175   -0.1265266272
C        3.4620819956    0.4369103128   -0.3512315275
C        2.7483928868    0.9127894769   -1.6151180848
H        3.2972599413   -0.0563254146    1.8139385435
H        4.3231038011    1.0635944238   -0.1267357163
H       -4.6178157623    0.9032886292   -0.3678442486
H       -2.9146717047    2.4319554110   -1.3636817749
H       -1.3893505774   -1.3015774528    1.4110541215
H        0.9788197008    1.0933381378   -0.1635341777
H        4.5997809019   -1.4157322760    0.1980136940
H        3.0860345088   -1.7363020706   -0.7776638078
H        1.9541403590    0.2243317819   -1.9283863240
H        2.3090123347    1.9070890507   -1.4698938498
H        3.4582941026    0.9839325546   -2.4478175986
C       -4.1352011121   -1.2935670971    1.2391702832
H       -4.8782385790   -0.7492950720    1.8335602295
H       -4.6687098696   -1.8594440606    0.4666915773
H       -3.6436143188   -2.0151632182    1.9021438017
28   
Iteration 9 Energy -0.17590456
C       -3.1347370345   -0.3334601635    0.6124225632
C       -3.5654657074    0.7320102183   -0.1854411356
C       -2.6101660336    1.5879940731   -0.7462867645
N       -1.2886234956    1.4362139154   -0.5558408152
C       -0.8620734576    0.4240463141    0.2047560699
C       -1.7537795450   -0.4842362139    0.8057326254
N        0.5233713690    0.3557505096    0.3347096193
C        1.3374000669   -0.5173078526    0.9975003779
O        0.9410601790   -1.4589986468    1.6516365154
C        2.8182409683   -0.2383908277    0.8561642854
C        3.6275090349   -1.0537030201   -0.1293059417
C        3.4620207953    0.4365038286   -0.3501095159
C        2.7461317438    0.9165618483   -1.6111521847
H        3.2978835510   -0.0647842225    1.8146451732
H        4.3241655042    1.0613440759   -0.1248005507
H       -4.6206207300    0.9001963864   -0.3721816687
H       -2.9137151903    2.4258012160   -1.3718596488
H       -1.3906455818   -1.2992045345    1.4173608549
H        0.9807546988    1.0946825993   -0.1629665796
H        4.6004397090   -1.4171268076    0.1928495012
H        3.0853705876   -1.7354251780   -0.7815202883
H        1.9539718905    0.2269904799   -1.9274103257
H        2.3029102810    1.9083249012   -1.4603945303
H        3.4553217138    0.9951617557   -2.4437962585
C       -4.1329898978   -1.2892222447    1.2414520840
H       -4.8767951383   -0.7432802739    1.8333475875
H       -4.6658532282   -1.8582251749    0.4708277670
H       -3.6410862293   -2.0080143344    1.9072579193
28   
Iteration 10 Energy -0.17591535
C       -3.1355341407   -0.3337372690    0.6152257539
C       -3.5637964880    0.7268516965   -0.1902816056
C       -2.6107040932    1.5815318017   -0.7572953158
N       -1.2894711475    1.4296378200   -0.5633164799
C       -0.8614925488    0.4227246062    0.2036785370
C       -1.7543275869   -0.4813863401    0.8097455900
N        0.5239133491    0.3567891111    0.3354370293
C        1.3355305274   -0.5211731405    0.9946614761
O        0.9396191962   -1.4659945228    1.6443819279
C        2.8169239819   -0.2432557246    0.8548705077
C        3.6239200871   -1.0555078402   -0.1351697143
C        3.4633039807    0.4366337461   -0.3476152354
C        2.7503912322    0.9261588200   -1.6070564995
H        3.2972195829   -0.0787282372    1.8145576055
H        4.3283596365    1.0564776653   -0.1197310141
H       -4.6188914764    0.8930958919   -0.3788766012
H       -2.9145672299    2.4150504100   -1.3884267426
H       -1.3923017380   -1.2921153953    1.4275119313
H        0.9820310466    1.0957160052   -0.1611948634
H        4.5968332898   -1.4222438630    0.1834342954
H        3.0794898443   -1.7330840917   -0.7898293901
H        1.9619372968    0.2367805382   -1.9331621373
H        2.3026424344    1.9145393884   -1.4479239930
H        3.4624334759    1.0160992553   -2.4361488172
C       -4.1345394994   -1.2854810406    1.2497010473
H       -4.8793433940   -0.7355397476    1.8366453865
H       -4.6660345145   -1.8601409272    0.4823391655
H       -3.6435442970   -1.9994957406    1.9214349114
28   
Iteration 11 Energy -0.17593783
C       -3.1365767925   -0.3319964268    0.6182592265
C       -3.5627669095    0.7188842994   -0.2010784403
C       -2.6068300142    1.5656388219   -0.7752818309
N       -1.2858045669    1.4170383634   -0.5775375799
C       -0.8604189583    0.4185304421    0.2016923132
C       -1.7555944179   -0.4769811211    0.8169814248
N        0.5244021454    0.3534934943    0.3391147411
C        1.3361608445   -0.5304033128    0.9900401819
O        0.9377320891   -1.4806857016    1.6302094636
C        2.8178450972   -0.2525182727    0.8530236919
C        3.6210050154   -1.0568833367   -0.1466487502
C        3.4642451400    0.4378185949   -0.3435293453
C        2.7509163998    0.9423885298   -1.5968567516
H        3.2999992042   -0.1027847844    1.8141824743
H        4.3329304942    1.0513451586   -0.1123991735
H       -4.6172075127    0.8837395918   -0.3944212833
H       -2.9090315844    2.3917720127   -1.4168359081
H       -1.3954700682   -1.2796415911    1.4463113676
H        0.9833808466    1.0934322588   -0.1550544014
H        4.5949054724   -1.4277983534    0.1640634407
H        3.0729365964   -1.7275666658   -0.8053748923
H        1.9694508866    0.2516077163   -1.9367424920
H        2.2935282376    1.9236742456   -1.4220935242
H        3.4645649610    1.0534030744   -2.4220153742
C       -4.1369944868   -1.2756867761    1.2626453686
H       -4.8835026069   -0.7183233657    1.8403578809
H       -4.6662085454   -1.8606516183    0.5015184596
H       -3.6475961675   -1.9806420560    1.9450665070
28   
Iteration 12 Energy -0.17597660
C       -3.1387500794   -0.3265065096    0.6275944155
C       -3.5584440676    0.6963279850   -0.2298441097
C       -2.5965863696    1.5202380516   -0.8268200156
N       -1.2767278787    1.3767023472   -0.6186219822
C       -0.8586613940    0.4020588458    0.1939796775
C       -1.7590697222   -0.4677414761    0.8375855960
N        0.5248656605    0.3399132272    0.3442097953
C        1.3360824964   -0.5610015364    0.9719369854
O        0.9350168799   -1.5278346567    1.5852483346
C        2.8182565857   -0.2805943754    0.8445636723
C        3.6171608893   -1.0589010468   -0.1791022856
C        3.4673379205    0.4411971618   -0.3320546197
C        2.7522739722    0.9888409852   -1.5660207069
H        3.3017206947   -0.1684127074    1.8101869580
H        4.3414063894    1.0410972669   -0.0859364789
H       -4.6114203098    0.8574310290   -0.4340971955
H       -2.8936644014    2.3252502431   -1.4969762350
H       -1.4033184305   -1.2463496985    1.4989355451
H        0.9855157642    1.0850700529   -0.1403569425
H        4.5915426625   -1.4406477597    0.1165839251
H        3.0648485265   -1.7094618361   -0.8542640123
H        1.9876532768    0.2980067558   -1.9424104339
H        2.2722814530    1.9508446230   -1.3496470703
H        3.4688572940    1.1542206088   -2.3794336576
C       -4.1443904284   -1.2442486757    1.3004168819
H       -4.8939587422   -0.6649405733    1.8519737886
H       -4.6696101341   -1.8565731755    0.5582730430
H       -3.6602177905   -1.9237810119    2.0116940906
28   
Iteration 13 Energy -0.17602273
C       -3.1421620330   -0.3169089205    0.6437058317
C       -3.5526150810    0.6561784565   -0.2741770950
C       -2.5828827673    1.4409077047   -0.9101222545
N       -1.2646502800    1.3056421005   -0.6868757393
C       -0.8567427146    0.3733531558    0.1787650748
C       -1.7642818268   -0.4513134094    0.8695722147
N        0.5245433792    0.3170763497    0.3481820469
C        1.3335882843   -0.6118272591    0.9362302373
O        0.9278995407   -1.6057983522    1.5013563226
C        2.8169519143   -0.3284550845    0.8272377226
C        3.6116186510   -1.0610704297   -0.2332974925
C        3.4735022789    0.4453354034   -0.3121411058
C        2.7584613769    1.0653402266   -1.5113739658
H        3.2999308631   -0.2745777029    1.7981097898
H        4.3529905346    1.0243852164   -0.0371028322
H       -4.6035947306    0.8098080835   -0.4939192643
H       -2.8727734473    2.2084980255   -1.6257854405
H       -1.4143667134   -1.1876508686    1.5808493427
H        0.9875536533    1.0719545183   -0.1184066771
H        4.5837841430   -1.4624116904    0.0430855684
H        3.0558059052   -1.6746809907   -0.9394679987
H        2.0158716506    0.3847571665   -1.9462911060
H        2.2511216857    1.9963979375   -1.2314573711
H        3.4793783902    1.3093496513   -2.3008069578
C       -4.1555271883   -1.1891544499    1.3637494289
H       -4.9084812243   -0.5754372833    1.8717473387
H       -4.6760683187   -1.8452377862    0.6565160960
H       -3.6788552642   -1.8242540357    2.1197152908
28   
Iteration 14 Energy -0.17608669
C       -3.1428861146   -0.3101133157    0.6550291395
C       -3.5501561003    0.6262660681   -0.3018096456
C       -2.5777140764    1.3844522374   -0.9655894458
N       -1.2600390994    1.2570654553   -0.7342606546
C       -0.8565741075    0.3564606620    0.1661753575
C       -1.7657596295   -0.4373305074    0.8894356712
N        0.5227991894    0.3057516660    0.3488243564
C        1.3281684923   -0.6434343173    0.9081598092
O        0.9166529186   -1.6541052645    1.4385169259
C        2.8130842510   -0.3623140904    0.8126583046
C        3.6054616888   -1.0638148168   -0.2707293696
C        3.4787238129    0.4451170840   -0.2981055224
C        2.7668121179    1.1166898064   -1.4711700513
H        3.2938785409   -0.3445681025    1.7859598146
H        4.3601170720    1.0093845430    0.0005485544
H       -4.6004411337    0.7723188421   -0.5299252182
H       -2.8651170102    2.1242701952   -1.7108880464
H       -1.4157068586   -1.1436592699    1.6308656547
H        0.9879170454    1.0673770156   -0.1042065508
H        4.5723290693   -1.4831580726   -0.0026889975
H        3.0488983384   -1.6473550316   -1.0013585894
H        2.0308583890    0.4525915249   -1.9414215655
H        2.2529553722    2.0313795778   -1.1520229569
H        3.4908261047    1.4010859449   -2.2440672121
C       -4.1590381853   -1.1515886203    1.4071133709
H       -4.9143426739   -0.5173909196    1.8855911051
H       -4.6764907826   -1.8370765001    0.7259763856
H       -3.6852159500   -1.7540951510    2.1909863572
28   
Iteration 15 Energy -0.17624253
C       -3.1404048013   -0.2978584602    0.6760028911
C       -3.5485345372    0.5663040696   -0.3465069582
C       -2.5777673817    1.2782774858   -1.0628344494
N       -1.2601213578    1.1706361558   -0.8202103801
C       -0.8582679904    0.3332461477    0.1396554941
C       -1.7637149377   -0.4053423570    0.9213610963
N        0.5167704081    0.2976442860    0.3473998513
C        1.3095137383   -0.6921244740    0.8496937686
O        0.8804280539   -1.7284676511    1.3127527375
C        2.7987092992   -0.4260078814    0.7797534121
C        3.5882552048   -1.0715190069   -0.3402255040
C        3.4894767895    0.4379805794   -0.2716874115
C        2.7919476111    1.2063584007   -1.3927330060
H        3.2712988468   -0.4637371849    1.7565463625
H        4.3699659999    0.9728280714    0.0792245683
H       -4.5990301046    0.6924335704   -0.5853986878
H       -2.8660709690    1.9631777274   -1.8585632953
H       -1.4047287965   -1.0552548973    1.7098561562
H        0.9869905529    1.0723142073   -0.0768080910
H        4.5356052513   -1.5366313442   -0.0783318247
H        3.0343766289   -1.5873635324   -1.1219904060
H        2.0441693945    0.5924202642   -1.9098618873
H        2.2990995981    2.1083820386   -1.0107589072
H        3.5227895028    1.5279771493   -2.1442868140
C       -4.1557546429   -1.0856863450    1.4851269002
H       -4.9169040005   -0.4216120907    1.9108539949
H       -4.6660170350   -1.8237749955    0.8554610498
H       -3.6820795302   -1.6243922401    2.3141060462
28   
Iteration 16 Energy -0.17629251
C       -3.1386433781   -0.3010344262    0.6729665020
C       -3.5510639157    0.5764182773   -0.3363318502
C       -2.5849529115    1.3017985358   -1.0454409275
N       -1.2666689815    1.1933820784   -0.8063405835
C       -0.8588070820    0.3446303396    0.1409707913
C       -1.7610978345   -0.4077326259    0.9131006324
N        0.5168260747    0.3076263223    0.3446207656
C        1.3062367567   -0.6805847178    0.8554786772
O        0.8744558418   -1.7122433567    1.3265514356
C        2.7955906999   -0.4177242583    0.7852043632
C        3.5882689758   -1.0731649096   -0.3262163263
C        3.4867374754    0.4372936807   -0.2725154155
C        2.7948233233    1.1885422161   -1.4084108226
H        3.2657844158   -0.4391550648    1.7636127687
H        4.3652150014    0.9771731754    0.0757153570
H       -4.6025077967    0.7026835270   -0.5708481532
H       -2.8770161981    1.9968146784   -1.8309657060
H       -1.3986608422   -1.0680800976    1.6913324366
H        0.9885712368    1.0819223409   -0.0788202679
H        4.5346147740   -1.5364810439   -0.0575046883
H        3.0361899553   -1.5956464288   -1.1048731669
H        2.0322880562    0.5757963287   -1.9050409573
H        2.3213229717    2.1086856994   -1.0455755151
H        3.5256817545    1.4765815820   -2.1734699541
C       -4.1497505255   -1.1033360264    1.4729830453
H       -4.9109079151   -0.4474451921    1.9112202987
H       -4.6601276356   -1.8331085734    0.8337946173
H       -3.6724014738   -1.6534046448    2.2923993134
28   
Iteration 17 Energy -0.17635021
C       -3.1403346311   -0.2960987114    0.6820117119
C       -3.5499372841    0.5476088419   -0.3566415817
C       -2.5844693602    1.2529764497   -1.0865043338
N       -1.2669580547    1.1518301590   -0.8394541558
C       -0.8569917661    0.3308760038    0.1312642279
C       -1.7630271276   -0.3927529114    0.9259997358
N        0.5172355394    0.3005962766    0.3448684969
C        1.2991561029   -0.7095747882    0.8239246487
O        0.8596530215   -1.7563716835    1.2531427813
C        2.7888611182   -0.4493553011    0.7716382975
C        3.5856126258   -1.0667077589   -0.3575634188
C        3.4843799835    0.4419334821   -0.2511635107
C        2.8069764958    1.2240852370   -1.3745878708
H        3.2536121077   -0.4992668607    1.7515122897
H        4.3642958539    0.9657867802    0.1172907498
H       -4.6009662632    0.6652975716   -0.5971502611
H       -2.8755309854    1.9234004360   -1.8934898759
H       -1.4021189226   -1.0210846678    1.7313402561
H        0.9916506711    1.0854600210   -0.0556468291
H        4.5308901001   -1.5411276276   -0.1046646021
H        3.0335733143   -1.5599877567   -1.1551819480
H        2.0325767794    0.6351168809   -1.8819406161
H        2.3503761107    2.1457156072   -0.9941924207
H        3.5428668506    1.5108817267   -2.1353380878
C       -4.1518712870   -1.0714021762    1.5072805515
H       -4.9148021632   -0.4017304528    1.9209488600
H       -4.6591657542   -1.8244241633    0.8930993779
H       -3.6755422774   -1.5914725566    2.3467941720
28   
Iteration 18 Energy -0.17638248
C       -3.1403954377   -0.2970295506    0.6794989812
C       -3.5509172182    0.5586846149   -0.3490661336
C       -2.5844724004    1.2691074948   -1.0727811720
N       -1.2665058798    1.1641794528   -0.8302164675
C       -0.8581814909    0.3336025447    0.1328782037
C       -1.7628819071   -0.3987207613    0.9210974347
N        0.5163149914    0.2991460095    0.3438468493
C        1.2999864068   -0.7066198508    0.8291926748
O        0.8624761653   -1.7519893043    1.2638713999
C        2.7891329845   -0.4427993598    0.7767010399
C        3.5924362226   -1.0633156608   -0.3462449163
C        3.4806696689    0.4452888323   -0.2518444294
C        2.8029581595    1.2104795080   -1.3869832510
H        3.2522382314   -0.4841485598    1.7577612576
H        4.3587416590    0.9761964322    0.1108657141
H       -4.6020921444    0.6809025711   -0.5867062533
H       -2.8757659804    1.9481377151   -1.8724518738
H       -1.4009639909   -1.0382345063    1.7170927192
H        0.9905015900    1.0849097758   -0.0552642525
H        4.5429348741   -1.5256955240   -0.0906935578
H        3.0439865214   -1.5696908081   -1.1381100732
H        2.0240630485    0.6163235114   -1.8810908773
H        2.3508020109    2.1402015185   -1.0212874536
H        3.5375167079    1.4809307810   -2.1549566410
C       -4.1520945646   -1.0800740654    1.4973504838
H       -4.9130996372   -0.4138604606    1.9200415636
H       -4.6619104233   -1.8248001465    0.8751911607
H       -3.6754774249   -1.6109041770    2.3299043807
28   
Iteration 19 Energy -0.17639558
C       -3.1406499468   -0.2954169885    0.6806232038
C       -3.5503892851    0.5573101358   -0.3508602518
C       -2.5821847959    1.2636699775   -1.0763176548
N       -1.2642734346    1.1594841826   -0.8334447861
C       -0.8587008845    0.3315818205    0.1330302484
C       -1.7633820669   -0.3977178820    0.9238165354
N        0.5152378876    0.2969519550    0.3465653774
C        1.2989938232   -0.7118719489    0.8249414547
O        0.8605101926   -1.7600499118    1.2518153479
C        2.7884422198   -0.4481430492    0.7751839906
C        3.5968755076   -1.0596948018   -0.3491003400
C        3.4781596759    0.4477878482   -0.2482390769
C        2.8011488341    1.2125338682   -1.3843605687
H        3.2498626326   -0.4958897450    1.7567704934
H        4.3553037538    0.9795031453    0.1155355072
H       -4.6013108036    0.6796598542   -0.5896440083
H       -2.8725012610    1.9400919877   -1.8785463136
H       -1.4010788776   -1.0368324442    1.7199910868
H        0.9894141131    1.0855058720   -0.0470212061
H        4.5513895589   -1.5150814307   -0.0960857935
H        3.0513448567   -1.5683569796   -1.1414989739
H        2.0178564705    0.6207540554   -1.8741467503
H        2.3540584044    2.1455977069   -1.0210025593
H        3.5350456084    1.4769309215   -2.1550449295
C       -4.1534738056   -1.0753021818    1.5001618570
H       -4.9147587083   -0.4074495207    1.9197284067
H       -4.6631252666   -1.8217571417    0.8799359441
H       -3.6778136984   -1.6035909508    2.3348101548
28   
Iteration 20 Energy -0.17639762
C       -3.1406624176   -0.2951177207    0.6807796168
C       -3.5499688769    0.5566819945   -0.3516318124
C       -2.5815651281    1.2628611709   -1.0769893275
N       -1.2637918307    1.1592070768   -0.8331637247
C       -0.8584800779    0.3320112391    0.1340440283
C       -1.7635251151   -0.3967654048    0.9248184733
N        0.5152440131    0.2978279882    0.3487741944
C        1.2988663866   -0.7121517288    0.8248075061
O        0.8598877295   -1.7607210751    1.2501856901
C        2.7885104699   -0.4493657447    0.7746641488
C        3.5976130826   -1.0592018446   -0.3500109573
C        3.4775178165    0.4480667920   -0.2479595383
C        2.8002923076    1.2125668028   -1.3841074567
H        3.2501115009   -0.5002933816    1.7560149907
H        4.3541361568    0.9803970575    0.1161825648
H       -4.6007805783    0.6784652721   -0.5912073851
H       -2.8715745578    1.9386675909   -1.8798470612
H       -1.4013239954   -1.0352811676    1.7215268821
H        0.9895153844    1.0865935015   -0.0443051956
H        4.5532389019   -1.5127023696   -0.0978207261
H        3.0524551177   -1.5687814889   -1.1420651567
H        2.0160182572    0.6212049933   -1.8727860401
H        2.3546239446    2.1465491566   -1.0213593694
H        3.5338608453    1.4754943499   -2.1556019883
C       -4.1536701791   -1.0748181439    1.5002275859
H       -4.9157129819   -0.4070332987    1.9185201303
H       -4.6625067517   -1.8220287977    0.8802416350
H       -3.6783287231   -1.6021243745    2.3356646760
28   
Iteration 21 Energy -0.17639869
C       -3.1404188698   -0.2949835554    0.6808371780
C       -3.5492529274    0.5557288914   -0.3526476260
C       -2.5807441301    1.2619293007   -1.0778463593
N       -1.2631255682    1.1590160369   -0.8328255805
C       -0.8580292460    0.3327196370    0.1352596852
C       -1.7634200974   -0.3957185910    0.9259158301
N        0.5154790909    0.2991968128    0.3513067519
C        1.2988745252   -0.7118863411    0.8253294874
O        0.8594715190   -1.7606060892    1.2498665085
C        2.7886918715   -0.4502083553    0.7741637963
C        3.5973524512   -1.0591900586   -0.3512169382
C        3.4770826309    0.4480186755   -0.2481492178
C        2.7993238656    1.2128576790   -1.3837132499
H        3.2511006236   -0.5045121626    1.7549547722
H        4.3528398728    0.9811404104    0.1169016202
H       -4.5999382393    0.6767563716   -0.5931475190
H       -2.8704777716    1.9369689225   -1.8814486994
H       -1.4015018528   -1.0331938809    1.7236019252
H        0.9899641734    1.0876048336   -0.0422388067
H        4.5534688966   -1.5121344090   -0.0998683670
H        3.0519050553   -1.5688370733   -1.1430221966
H        2.0142266816    0.6220059342   -1.8716962793
H        2.3550461774    2.1474445505   -1.0208116827
H        3.5323969274    1.4749457183   -2.1559662838
C       -4.1536334882   -1.0745582717    1.5001337076
H       -4.9166280915   -0.4068983564    1.9168899297
H       -4.6613365941   -1.8227753747    0.8804329801
H       -3.6787167622   -1.6006225679    2.3366008770
28   
Iteration 22 Energy -0.17639886
C       -3.1402887213   -0.2950802971    0.6807044617
C       -3.5489671688    0.5556646032   -0.3528124851
C       -2.5804104986    1.2621238109   -1.0776936237
N       -1.2628442771    1.1593638196   -0.8322984254
C       -0.8578222860    0.3330692118    0.1358208454
C       -1.7633373927   -0.3956128319    0.9261188284
N        0.5156524267    0.2996707523    0.3521309138
C        1.2990777639   -0.7114435611    0.8260830304
O        0.8597540034   -1.7599983328    1.2511062624
C        2.7888827420   -0.4499209209    0.7742525168
C        3.5969231979   -1.0592732407   -0.3513606356
C        3.4770038538    0.4479914809   -0.2484848072
C        2.7989603518    1.2126587596   -1.3839787557
H        3.2518885821   -0.5049985552    1.7547176409
H        4.3522774498    0.9816213507    0.1169811216
H       -4.5996086729    0.6765477321   -0.5935698820
H       -2.8700386086    1.9371821231   -1.8813185404
H       -1.4015698566   -1.0330056922    1.7239430806
H        0.9902016385    1.0876830548   -0.0421337788
H        4.5530150054   -1.5124680449   -0.1003622007
H        3.0510001726   -1.5688353207   -1.1428947578
H        2.0134595518    0.6218944815   -1.8714336403
H        2.3552615269    2.1475595016   -1.0211720112
H        3.5317544502    1.4741679918   -2.1566938091
C       -4.1535977001   -1.0748869123    1.4996634197
H       -4.9169288841   -0.4074104506    1.9160986664
H       -4.6608392886   -1.8233010549    0.8798232255
H       -3.6788586391   -1.6007549172    2.3363594553
