28
Properties=species:S:1:pos:R:3 Iteration=T 40=T Energy=T -611.65004788=T pbc="F F F"
C       -3.21410592       0.18487186       0.57449134
C       -3.96019935      -0.56945808      -0.33780977
C       -3.28505685      -1.33882263      -1.27283412
N       -1.95702926      -1.40778779      -1.36067925
C       -1.25210380      -0.68557640      -0.48760522
C       -1.82715215       0.12568474       0.49695453
N        0.12393578      -0.82582180      -0.66468241
C        1.15736164      -0.24196196       0.02750256
O        0.98685723       0.55550387       0.93648759
C        2.49239179      -0.62739000      -0.52361376
C        3.24685093       0.46050609      -1.27581824
C        3.80234537      -0.08380772      -0.00461441
C        3.93702296       0.76057437       1.23701341
H        2.53210241      -1.61813463      -0.97172006
H        4.61627052      -0.79554595      -0.13772639
H       -5.04615900      -0.55515979      -0.31881885
H       -3.83605546      -1.93637754      -1.99708044
H       -1.18846308       0.68441965       1.16820811
H        0.34685983      -1.44593652      -1.43188675
H        3.70291592       0.20083342      -2.22666607
H        2.80719304       1.45387208      -1.23487632
H        3.12482880       1.48256373       1.32146210
H        3.91743562       0.13733747       2.13723478
H        4.89337308       1.29546225       1.21422214
C       -3.89168276       1.03341740       1.61029869
H       -4.58233107       1.74391030       1.14247951
H       -4.48102252       0.41426967       2.29657474
H       -3.16637596       1.59876019       2.20109510
