28   
Iteration 0 Energy -0.17340986
C       -3.1507600200   -0.1041518200    0.8233313400
C       -3.9040987600   -0.4779875600   -0.2947171100
C       -3.2366776600   -0.8686782900   -1.4454324400
N       -1.9092075600   -0.9128742900   -1.5575560900
C       -1.1977094100   -0.5561818700   -0.4866896900
C       -1.7645361400   -0.1446454900    0.7247899300
N        0.1778532400   -0.6386071000   -0.7000531100
C        1.2127164500   -0.3627924400    0.1582468300
O        1.0599080900    0.0474385000    1.2963049900
C        2.5511095100   -0.6631127800   -0.4586428500
C        3.1368902100    0.2470621300   -1.5128994300
C        3.7708856100    0.1525550000   -0.1528111600
C        3.7423105900    1.3303798200    0.7873895700
H        2.7076751400   -1.7300544300   -0.6136549700
H        4.6902367300   -0.4287909300   -0.1100033600
H       -4.9898227800   -0.4638129600   -0.2667503000
H       -3.7937316700   -1.1648548200   -2.3326505700
H       -1.1210940400    0.1310972900    1.5501450700
H        0.4106684900   -0.9368821800   -1.6384646600
H        3.6283190600   -0.2039794500   -2.3702900600
H        2.5909312800    1.1608845400   -1.7373139500
H        2.8277490500    1.9168971300    0.6689890700
H        3.7827787400    1.0036441600    1.8304041400
H        4.5983967700    1.9859518000    0.5917881400
C       -3.8186838300    0.3338222000    2.0937643900
H       -4.4066177800    1.2445966800    1.9312164600
H       -4.5087741800   -0.4347303200    2.4597122700
H       -3.0867160000    0.5380084300    2.8794474300
28   
Iteration 1 Energy -0.17499126
C       -3.2198198798   -0.1129704382    0.8248114245
C       -3.9215351419   -0.4922230035   -0.3235175978
C       -3.1999971772   -0.8669979925   -1.4483179852
N       -1.8663813493   -0.8893542026   -1.5035762147
C       -1.1922909445   -0.5290311271   -0.4083233803
C       -1.8283435800   -0.1331528709    0.7783577380
N        0.1928476918   -0.5948875812   -0.5829296468
C        1.2642131896   -0.3348374528    0.2362272496
O        1.2039267664    0.0696015064    1.3832835741
C        2.5624507395   -0.6536270032   -0.4549728550
C        3.1044848726    0.2547305106   -1.5344922422
C        3.8131298654    0.1408752427   -0.2114936865
C        3.8589295253    1.3144833381    0.7369263797
H        2.6924808583   -1.7212816269   -0.6246014398
H        4.7240859550   -0.4548183792   -0.2219308180
H       -5.0073180085   -0.4949971004   -0.3403435683
H       -3.7146415179   -1.1673771150   -2.3594406276
H       -1.2350765299    0.1501300593    1.6361650545
H        0.4203574625   -0.8878942394   -1.5222868243
H        3.5405672324   -0.1992888244   -2.4200396492
H        2.5623251558    1.1788443333   -1.7234324136
H        2.9497772350    1.9188985052    0.6741295651
H        3.9525137877    0.9791557393    1.7742949043
H        4.7141732825    1.9567756905    0.4980447823
C       -3.9452407070    0.3090723357    2.0715387203
H       -4.5398107000    1.2118631662    1.8897220306
H       -4.6373150290   -0.4719342630    2.4062362344
H       -3.2484939604    0.5204437148    2.8875611749
28   
Iteration 2 Energy -0.17683314
C       -3.2156097394   -0.1065515734    0.8320696874
C       -3.9313388711   -0.4874707643   -0.3071729896
C       -3.2449823075   -0.8798368440   -1.4577301981
N       -1.9057828104   -0.9106121588   -1.5258309268
C       -1.1870383095   -0.5542005948   -0.4563331274
C       -1.8207329376   -0.1482516164    0.7333292812
N        0.1937776796   -0.6291687322   -0.6469097139
C        1.2466481006   -0.3607534386    0.1854071509
O        1.1364302993    0.0419399499    1.3266774727
C        2.5735947512   -0.6656624883   -0.4660530534
C        3.1293303822    0.2593749534   -1.5271132172
C        3.8185508139    0.1498848019   -0.1867497102
C        3.8444364248    1.3321284057    0.7678938286
H        2.7240099093   -1.7282575893   -0.6349151997
H        4.7418097409   -0.4255803198   -0.1667851328
H       -5.0162050130   -0.4807699577   -0.3051460764
H       -3.7829297188   -1.1797674907   -2.3555421183
H       -1.2269176967    0.1380159342    1.5894988424
H        0.4211765422   -0.9281990364   -1.5777499843
H        3.5978959006   -0.1902994807   -2.3991665785
H        2.5801381164    1.1762674263   -1.7315230180
H        2.9357738295    1.9403598886    0.6918711819
H        3.9243663373    0.9917410386    1.8068448658
H        4.7008053799    1.9808499487    0.5503080488
C       -3.9175977108    0.3305748234    2.0988244797
H       -4.5057197566    1.2388858776    1.9235532670
H       -4.6076954712   -0.4451159337    2.4504528040
H       -3.2061948343    0.5406757867    2.9055898615
28   
Iteration 3 Energy -0.17710072
C       -3.1768798732   -0.0985951598    0.8120949833
C       -3.9332416291   -0.4780151432   -0.3028311854
C       -3.2594343402   -0.8978428476   -1.4594531153
N       -1.9169212140   -0.9477800385   -1.5356313551
C       -1.1892144376   -0.5861807482   -0.4742785386
C       -1.7746201188   -0.1502511482    0.7320230332
N        0.1870299044   -0.6775522074   -0.6706490140
C        1.2297218496   -0.4009413548    0.1642614662
O        1.1197494543   -0.0043503666    1.3056778122
C        2.5679274461   -0.6823627572   -0.4804768894
C        3.1013454488    0.2856638727   -1.5185538077
C        3.8022326880    0.1596798037   -0.1806133440
C        3.8117491366    1.3323852057    0.7994969198
H        2.7418728927   -1.7358496382   -0.6713293932
H        4.7466947875   -0.3796454406   -0.1589767879
H       -5.0168839250   -0.4522407409   -0.2839366866
H       -3.8100941230   -1.2016281785   -2.3482722807
H       -1.1835395705    0.1418702892    1.5890426966
H        0.4136874394   -0.9980346984   -1.5894133874
H        3.5930402130   -0.1348567342   -2.3930800778
H        2.5324808237    1.1934085001   -1.7101933584
H        2.8942313499    1.9319775034    0.7356637817
H        3.9036958531    0.9700486785    1.8314540644
H        4.6565779243    2.0019212738    0.5997452609
C       -3.8723357854    0.3627054176    2.0846454914
H       -4.4472231779    1.2782109694    1.9031091015
H       -4.5658002330   -0.4042950665    2.4490082830
H       -3.1558500360    0.5727515075    2.8890659206
28   
Iteration 4 Energy -0.17747607
C       -3.1877945819   -0.0927168238    0.8191541509
C       -3.9292188260   -0.4767482214   -0.3041038134
C       -3.2466696827   -0.8988410262   -1.4523770450
N       -1.9069275261   -0.9572189304   -1.5420676400
C       -1.1865878936   -0.5936687723   -0.4775060933
C       -1.7892080425   -0.1560664593    0.7175712235
N        0.1918092630   -0.6841080999   -0.6604768178
C        1.2396887991   -0.4071469505    0.1700540805
O        1.1314504649   -0.0117821269    1.3126816884
C        2.5735663109   -0.6830132356   -0.4825045926
C        3.0974203767    0.2934606529   -1.5179403372
C        3.8021508398    0.1614179397   -0.1851684767
C        3.8041715917    1.3260496294    0.8002141033
H        2.7488942727   -1.7355743540   -0.6824600620
H        4.7496713941   -0.3731214765   -0.1744023890
H       -5.0134441633   -0.4518396878   -0.2957682902
H       -3.7980553062   -1.2033823953   -2.3404387454
H       -1.1881985465    0.1348638457    1.5688369787
H        0.4216968808   -1.0095599266   -1.5789310180
H        3.5895039238   -0.1161082092   -2.3970016074
H        2.5240247702    1.2001043462   -1.7005433050
H        2.8820325959    1.9168269224    0.7383904835
H        3.8994318587    0.9603422119    1.8298260371
H        4.6443781493    2.0016830717    0.6020215754
C       -3.8769408581    0.3734153905    2.0907168075
H       -4.4487068679    1.2909402320    1.9095368442
H       -4.5719216671   -0.3897994997    2.4597924700
H       -3.1562187383    0.5817927388    2.8904931386
28   
Iteration 5 Energy -0.17748984
C       -3.1912373852   -0.0934924505    0.8209261511
C       -3.9201890740   -0.4790159682   -0.3089139216
C       -3.2442746184   -0.9003857950   -1.4596090946
N       -1.9034516095   -0.9515488226   -1.5287242108
C       -1.1869947411   -0.5886971305   -0.4609467930
C       -1.7933012623   -0.1527108768    0.7323547944
N        0.1918335243   -0.6803199999   -0.6458976823
C        1.2440684778   -0.4036261649    0.1811522449
O        1.1392702813   -0.0093375122    1.3247565026
C        2.5733406788   -0.6804625565   -0.4795216833
C        3.0921266469    0.2951922820   -1.5183565966
C        3.8049995797    0.1599128397   -0.1918906192
C        3.8177064805    1.3235181171    0.7922582397
H        2.7426687772   -1.7334023589   -0.6850173356
H        4.7505892498   -0.3782819979   -0.1930094429
H       -5.0046611941   -0.4548122511   -0.3023293514
H       -3.7901356671   -1.2049866808   -2.3510427081
H       -1.1956094053    0.1379055592    1.5857555578
H        0.4193024727   -1.0063686827   -1.5660209707
H        3.5784089056   -0.1127209621   -2.4012049455
H        2.5203745138    1.2039363903   -1.6954852121
H        2.8985278593    1.9183537855    0.7348961850
H        3.9170378031    0.9590326254    1.8215042697
H        4.6604558596    1.9939270832    0.5874872142
C       -3.8915982355    0.3695184641    2.0854612775
H       -4.4641327213    1.2857786905    1.9003848330
H       -4.5878327669   -0.3953757114    2.4484808142
H       -3.1772936309    0.5786709080    2.8901517076
28   
Iteration 6 Energy -0.17752854
C       -3.1909297459   -0.0945541628    0.8158976611
C       -3.9317432288   -0.4773569178   -0.3071243406
C       -3.2486104885   -0.8989743922   -1.4537905936
N       -1.9079600408   -0.9537394803   -1.5285293537
C       -1.1842681927   -0.5927232308   -0.4650675106
C       -1.7927942951   -0.1556475115    0.7268977672
N        0.1939764458   -0.6869419179   -0.6528180274
C        1.2424015403   -0.4069074803    0.1777290224
O        1.1342967515   -0.0112736504    1.3204364266
C        2.5744972419   -0.6815652342   -0.4787347402
C        3.0928128970    0.2963082087   -1.5160214384
C        3.8045854853    0.1614841356   -0.1888296492
C        3.8153534783    1.3255331188    0.7955417040
H        2.7451369932   -1.7336611721   -0.6867354634
H        4.7518691800   -0.3736877757   -0.1897227280
H       -5.0161072028   -0.4513714112   -0.2989269724
H       -3.7940289279   -1.2036203860   -2.3454864562
H       -1.1969427174    0.1351337990    1.5813798623
H        0.4220088596   -1.0152848149   -1.5717319612
H        3.5835675791   -0.1090637495   -2.3976165501
H        2.5197610343    1.2041119227   -1.6939243310
H        2.8969250299    1.9215492199    0.7360582178
H        3.9123912006    0.9608269348    1.8250324111
H        4.6590711974    1.9954534147    0.5930978571
C       -3.8842569356    0.3709649610    2.0838012333
H       -4.4547262072    1.2889958868    1.9011533871
H       -4.5807323855   -0.3920081834    2.4504159967
H       -3.1655558077    0.5782206872    2.8852177734
28   
Iteration 7 Energy -0.17754856
C       -3.1874627219   -0.0927623037    0.8177298427
C       -3.9266221273   -0.4754921211   -0.3069023072
C       -3.2464974173   -0.8995065065   -1.4553098548
N       -1.9061133595   -0.9582434675   -1.5350497903
C       -1.1859898334   -0.5966476025   -0.4696257919
C       -1.7889133851   -0.1574186181    0.7245894904
N        0.1922436513   -0.6915881937   -0.6538876447
C        1.2405245857   -0.4101642310    0.1754304014
O        1.1325122768   -0.0118500325    1.3170737841
C        2.5737638283   -0.6837622480   -0.4795760569
C        3.0898040343    0.2969826598   -1.5155193614
C        3.8023426395    0.1624589691   -0.1881334702
C        3.8102392567    1.3259921894    0.7980800035
H        2.7460798712   -1.7348981506   -0.6898006699
H        4.7519953540   -0.3684274933   -0.1885724192
H       -5.0108345275   -0.4478433458   -0.2991210171
H       -3.7954441074   -1.2031321874   -2.3451922099
H       -1.1904778909    0.1322444290    1.5778019136
H        0.4210695050   -1.0223576872   -1.5711311669
H        3.5837608480   -0.1056240037   -2.3966967996
H        2.5145237677    1.2034609257   -1.6931180384
H        2.8911416749    1.9214079751    0.7378465618
H        3.9061591517    0.9594370506    1.8272253647
H        4.6534567690    1.9975579595    0.5988858430
C       -3.8807800790    0.3742703580    2.0861892150
H       -4.4496134093    1.2932391765    1.9031386268
H       -4.5782650250   -0.3878932134    2.4526562751
H       -3.1626046377    0.5807604866    2.8885884705
28   
Iteration 8 Energy -0.17755724
C       -3.1888389621   -0.0934209199    0.8179495443
C       -3.9263863455   -0.4749183100   -0.3079506733
C       -3.2460643480   -0.8978133124   -1.4562142297
N       -1.9055815750   -0.9558530274   -1.5323987308
C       -1.1855272359   -0.5956574464   -0.4663828070
C       -1.7905387316   -0.1578869011    0.7271718973
N        0.1928214282   -0.6913712275   -0.6506476376
C        1.2419327363   -0.4088014796    0.1776873279
O        1.1340151689   -0.0083162759    1.3186634406
C        2.5744693184   -0.6835316400   -0.4779956696
C        3.0895598160    0.2958119698   -1.5156936071
C        3.8033196665    0.1623438750   -0.1892490286
C        3.8124595573    1.3263965143    0.7956613637
H        2.7450321181   -1.7348682486   -0.6892206767
H        4.7527518073   -0.3689646848   -0.1917534222
H       -5.0106509689   -0.4470455899   -0.3009225931
H       -3.7935351771   -1.2005680556   -2.3472986926
H       -1.1929127829    0.1305940702    1.5813144777
H        0.4212406475   -1.0227806511   -1.5680554950
H        3.5830754218   -0.1068941611   -2.3970276099
H        2.5144772567    1.2024244611   -1.6932163233
H        2.8944177384    1.9230762846    0.7339938361
H        3.9067857025    0.9609095335    1.8252368867
H        4.6570829092    1.9960925272    0.5961882161
C       -3.8835319457    0.3722275088    2.0856186934
H       -4.4519311866    1.2915318157    1.9029073582
H       -4.5817977550   -0.3900364398    2.4503478307
H       -3.1661455859    0.5775205854    2.8888854595
28   
Iteration 9 Energy -0.17756234
C       -3.1893849707   -0.0944020815    0.8181943956
C       -3.9261962361   -0.4727332078   -0.3091826807
C       -3.2453601068   -0.8939831614   -1.4575882386
N       -1.9048653151   -0.9530446711   -1.5319229480
C       -1.1850017660   -0.5956577810   -0.4648078296
C       -1.7911838731   -0.1600695783    0.7289229040
N        0.1933945152   -0.6930462731   -0.6483602886
C        1.2419655510   -0.4072795792    0.1797496624
O        1.1343752103   -0.0020286609    1.3190974711
C        2.5745483475   -0.6839380534   -0.4750329673
C        3.0885442149    0.2931465665   -1.5154444177
C        3.8035480120    0.1626211178   -0.1895826298
C        3.8136867433    1.3285506905    0.7928616393
H        2.7433304830   -1.7354659362   -0.6868967900
H        4.7532221619   -0.3682568700   -0.1930906399
H       -5.0104519372   -0.4437184518   -0.3030474692
H       -3.7920517393   -1.1944445848   -2.3499257544
H       -1.1941561026    0.1256365134    1.5843903863
H        0.4221611868   -1.0263201404   -1.5650927736
H        3.5827259665   -0.1103324794   -2.3960406969
H        2.5133516150    1.1994209680   -1.6943551857
H        2.8976492930    1.9278537852    0.7274671687
H        3.9040546868    0.9649808131    1.8234440320
H        4.6609726097    1.9951152897    0.5942101552
C       -3.8847607227    0.3691968641    2.0860431969
H       -4.4516777515    1.2897213075    1.9048757194
H       -4.5845375034   -0.3928877278    2.4482312114
H       -3.1679038834    0.5715660802    2.8904824678
28   
Iteration 10 Energy -0.17756891
C       -3.1916632776   -0.0978036603    0.8194071317
C       -3.9266277638   -0.4647383577   -0.3128846247
C       -3.2430871921   -0.8798146637   -1.4617493393
N       -1.9026054234   -0.9428456105   -1.5315464639
C       -1.1845302855   -0.5951067502   -0.4600358026
C       -1.7934973234   -0.1673989094    0.7350806737
N        0.1940425832   -0.6974621896   -0.6398903791
C        1.2432335824   -0.4024927960    0.1843929701
O        1.1323868556    0.0181976113    1.3178634126
C        2.5764883203   -0.6857487790   -0.4663927152
C        3.0880456350    0.2831977351   -1.5157456370
C        3.8056585749    0.1636147994   -0.1906198299
C        3.8173262959    1.3365790467    0.7830921833
H        2.7410554756   -1.7381664781   -0.6773155642
H        4.7561220325   -0.3658502313   -0.1941176102
H       -5.0108042244   -0.4319555367   -0.3099605824
H       -3.7874641548   -1.1720407993   -2.3582269467
H       -1.1985961396    0.1085314322    1.5952104422
H        0.4230594477   -1.0369794059   -1.5543486137
H        3.5844373074   -0.1245220374   -2.3931347076
H        2.5123703773    1.1879299045   -1.7008768741
H        2.9073573881    1.9434645272    0.7044417583
H        3.8943498822    0.9799641175    1.8171635855
H        4.6726487671    1.9937708243    0.5876946936
C       -3.8894732627    0.3582028087    2.0884302428
H       -4.4514967177    1.2828305617    1.9129967602
H       -4.5941543191   -0.4035850512    2.4416104249
H       -3.1745837579    0.5504286341    2.8970603865
28   
Iteration 11 Energy -0.17757744
C       -3.1911311138   -0.1004841499    0.8210581601
C       -3.9247640866   -0.4560230400   -0.3157664457
C       -3.2407520418   -0.8652958330   -1.4665424921
N       -1.9003558292   -0.9329698368   -1.5344001780
C       -1.1832160363   -0.5949518679   -0.4591362328
C       -1.7930321842   -0.1748783863    0.7383054813
N        0.1953078585   -0.7022578999   -0.6362201476
C        1.2422118848   -0.3980745911    0.1875641840
O        1.1325144601    0.0366355038    1.3158156670
C        2.5763285184   -0.6877448424   -0.4586582220
C        3.0874217383    0.2726541978   -1.5161634151
C        3.8050137225    0.1647193753   -0.1900456829
C        3.8150313917    1.3448752503    0.7750171076
H        2.7393363081   -1.7414347803   -0.6642391743
H        4.7560595152   -0.3636984429   -0.1892791447
H       -5.0088021791   -0.4192141575   -0.3148424748
H       -3.7846659171   -1.1489707461   -2.3660436484
H       -1.1987130129    0.0911122388    1.6019747225
H        0.4257758507   -1.0474063194   -1.5481146581
H        3.5856454643   -0.1412160541   -2.3896418417
H        2.5112152290    1.1754301184   -1.7090815827
H        2.9093474712    1.9564178237    0.6833466340
H        3.8800231207    0.9954192022    1.8123849485
H        4.6761592275    1.9954542485    0.5829984769
C       -3.8898373137    0.3481630644    2.0923222348
H       -4.4471448092    1.2768286969    1.9232809092
H       -4.5989414861   -0.4132225322    2.4374333390
H       -3.1760370747    0.5303345075    2.9042723497
28   
Iteration 12 Energy -0.17759365
C       -3.1917756285   -0.1059323985    0.8240155497
C       -3.9228481092   -0.4404509652   -0.3209122082
C       -3.2367305228   -0.8377625180   -1.4748429539
N       -1.8964995728   -0.9128890904   -1.5393175456
C       -1.1820377713   -0.5927191102   -0.4568311199
C       -1.7937065990   -0.1877114992    0.7448828125
N        0.1964677207   -0.7076656064   -0.6283937514
C        1.2409314028   -0.3891707252    0.1928799499
O        1.1300241415    0.0670595397    1.3124496766
C        2.5764932088   -0.6903439145   -0.4453176961
C        3.0890605188    0.2528718221   -1.5175755458
C        3.8052830935    0.1662582602   -0.1890862061
C        3.8136439567    1.3605888842    0.7586575435
H        2.7383802567   -1.7469745395   -0.6359322983
H        4.7560235336   -0.3625672326   -0.1776379329
H       -5.0066236031   -0.3971617810   -0.3237878377
H       -3.7791528558   -1.1057107913   -2.3800497351
H       -1.2009559351    0.0601939144    1.6150411549
H        0.4290123457   -1.0618725374   -1.5361458712
H        3.5883161656   -0.1753401799   -2.3835370937
H        2.5131327223    1.1523902639   -1.7259723143
H        2.9149447026    1.9789437678    0.6456372142
H        3.8609797989    1.0258420117    1.8018647734
H        4.6834673761    2.0002712015    0.5692223033
C       -3.8928275798    0.3279732527    2.0993293841
H       -4.4425352703    1.2632729862    1.9424020719
H       -4.6090951936   -0.4333977600    2.4293607831
H       -3.1813736176    0.4922054496    2.9171956556
28   
Iteration 13 Energy -0.17763037
C       -3.1920884892   -0.1146866040    0.8289485834
C       -3.9195528861   -0.4143401926   -0.3281230466
C       -3.2304159379   -0.7911878404   -1.4877046612
N       -1.8905639965   -0.8782752716   -1.5489096377
C       -1.1805337800   -0.5876848534   -0.4552525795
C       -1.7940624146   -0.2081372356    0.7538519102
N        0.1977184345   -0.7142417881   -0.6181333214
C        1.2381972279   -0.3748299439    0.1991874979
O        1.1245755355    0.1118251499    1.3055076986
C        2.5762565737   -0.6939584458   -0.4253117473
C        3.0947473584    0.2195260223   -1.5202555415
C        3.8051437909    0.1686200927   -0.1863311529
C        3.8085602720    1.3866331466    0.7316505472
H        2.7403307896   -1.7555229354   -0.5832424446
H        4.7542615657   -0.3620532038   -0.1514442047
H       -5.0027930473   -0.3607900038   -0.3361817374
H       -3.7711130352   -1.0329431114   -2.4012810888
H       -1.2032583045    0.0099638726    1.6334190969
H        0.4336019164   -1.0818130173   -1.5193632567
H        3.5938292889   -0.2356788082   -2.3724752998
H        2.5200770955    1.1130420026   -1.7561599339
H        2.9182917635    2.0106959951    0.5865088894
H        3.8328327080    1.0774785849    1.7836222318
H        4.6882645318    2.0129779912    0.5432324551
C       -3.8963233823    0.2941665360    2.1114240343
H       -4.4345356310    1.2393745162    1.9753871334
H       -4.6231168469   -0.4673169785    2.4173320988
H       -3.1883323592    0.4293569452    2.9376961701
28   
Iteration 14 Energy -0.17768336
C       -3.1930322457   -0.1270738627    0.8354287010
C       -3.9147263637   -0.3768073373   -0.3372675624
C       -3.2208528562   -0.7243528949   -1.5038090150
N       -1.8817423627   -0.8281851220   -1.5597008979
C       -1.1781665112   -0.5801366273   -0.4515459075
C       -1.7954360155   -0.2370283915    0.7664558631
N        0.1993929795   -0.7236527869   -0.6024630984
C        1.2351454085   -0.3552332847    0.2075288073
O        1.1162294246    0.1729906050    1.2939790604
C        2.5765811802   -0.6983709998   -0.3970728442
C        3.1031823270    0.1724518734   -1.5224541871
C        3.8052556116    0.1720958420   -0.1826204893
C        3.8016590728    1.4222431836    0.6920079853
H        2.7438671043   -1.7652374184   -0.5082661713
H        4.7521408090   -0.3594500528   -0.1156629438
H       -4.9970114260   -0.3084660353   -0.3522046282
H       -3.7580955392   -0.9287071903   -2.4284890550
H       -1.2079876154   -0.0614390477    1.6579511320
H        0.4392079315   -1.1101025337   -1.4943775773
H        3.6022802251   -0.3193677324   -2.3541020733
H        2.5302791203    1.0561833040   -1.7964635420
H        2.9220939387    2.0502151386    0.5037995090
H        3.7973462811    1.1501801358    1.7545554323
H        4.6927710493    2.0321583315    0.5032579704
C       -3.9023751887    0.2459642077    2.1266517835
H       -4.4244685569    1.2039827864    2.0207108594
H       -4.6436751321   -0.5145052276    2.3983914654
H       -3.1998640033    0.3398516159    2.9633799750
28   
Iteration 15 Energy -0.17772931
C       -3.1899328891   -0.1434967283    0.8428928230
C       -3.9074654961   -0.3203194530   -0.3458886384
C       -3.2107030918   -0.6252839547   -1.5236529973
N       -1.8732527300   -0.7539974037   -1.5776961328
C       -1.1757857315   -0.5693645257   -0.4536576881
C       -1.7938350130   -0.2781976230    0.7767926376
N        0.1995893365   -0.7378557826   -0.5887647832
C        1.2287487001   -0.3345103085    0.2113610485
O        1.0926750250    0.2370010967    1.2736209951
C        2.5768791206   -0.7042052819   -0.3619099453
C        3.1230858586    0.1048905107   -1.5228881812
C        3.8021191728    0.1781942858   -0.1718711229
C        3.7801556321    1.4729840997    0.6365586214
H        2.7601529982   -1.7738292697   -0.3861512220
H        4.7439554585   -0.3519515817   -0.0474775723
H       -4.9879890077   -0.2296763557   -0.3651591340
H       -3.7455101942   -0.7746531813   -2.4601857656
H       -1.2064676898   -0.1626396041    1.6788068571
H        0.4448595296   -1.1477611186   -1.4682241977
H        3.6209924537   -0.4421072482   -2.3200686389
H        2.5536814030    0.9709066885   -1.8546061205
H        2.9012180412    2.0863916176    0.4023959746
H        3.7610797852    1.2568090706    1.7118104783
H        4.6715838854    2.0766331450    0.4299761476
C       -3.9019530719    0.1785207443    2.1472944517
H       -4.4020711033    1.1521015904    2.0869967507
H       -4.6614182174   -0.5786124080    2.3745646966
H       -3.2043941499    0.2142290464    2.9927291582
28   
Iteration 16 Energy -0.17775078
C       -3.1958710030   -0.1615984733    0.8511176422
C       -3.8972649381   -0.2662568850   -0.3558043410
C       -3.1879278223   -0.5291377537   -1.5363490324
N       -1.8524713520   -0.6815174989   -1.5771315450
C       -1.1694556624   -0.5586040321   -0.4358996775
C       -1.8016560964   -0.3200509781    0.7985568541
N        0.2036801202   -0.7542752057   -0.5540111184
C        1.2282998579   -0.3058689225    0.2276029934
O        1.0892093465    0.3302237324    1.2521425579
C        2.5791689162   -0.7072126478   -0.3176121846
C        3.1271257088    0.0404907503   -1.5185185519
C        3.8044647425    0.1838796711   -0.1725677232
C        3.7791047894    1.5160672386    0.5724462847
H        2.7582245112   -1.7775367324   -0.2939616055
H        4.7460773841   -0.3391251250   -0.0196083716
H       -4.9754432123   -0.1537922638   -0.3869523007
H       -3.7109927477   -0.6247000671   -2.4864517710
H       -1.2259666568   -0.2658732658    1.7139747956
H        0.4515574542   -1.1934343400   -1.4183699935
H        3.6284560515   -0.5457623735   -2.2850832376
H        2.5582238118    0.8879999684   -1.8958631554
H        2.9219063401    2.1332947840    0.2756518327
H        3.7142194955    1.3519431491    1.6551407180
H        4.6900423722    2.0923625758    0.3729630335
C       -3.9223384662    0.1089565280    2.1592647850
H       -4.3989319708    1.0959644449    2.1419839888
H       -4.7028507096   -0.6405395528    2.3346060749
H       -3.2385923130    0.0843031802    3.0163312138
28   
Iteration 17 Energy -0.17786202
C       -3.1925043424   -0.1534430759    0.8463480728
C       -3.8984320673   -0.2854379265   -0.3546883449
C       -3.1941366142   -0.5686531466   -1.5318203600
N       -1.8587461748   -0.7165906926   -1.5691342069
C       -1.1686858481   -0.5729180099   -0.4345225588
C       -1.7993326516   -0.3084389145    0.7950219341
N        0.2050143668   -0.7653478055   -0.5586935566
C        1.2309541685   -0.3253584468    0.2278141457
O        1.0925824945    0.2910218061    1.2648191650
C        2.5812928580   -0.7087561083   -0.3302293167
C        3.1149043936    0.0714464698   -1.5170535965
C        3.8014505583    0.1841762135   -0.1747537885
C        3.7776994463    1.4975235866    0.5996143037
H        2.7562972596   -1.7800914071   -0.3516917865
H        4.7507386878   -0.3343160014   -0.0577407677
H       -4.9771936224   -0.1765641705   -0.3829439279
H       -3.7185153833   -0.6842372765   -2.4789649345
H       -1.2199905035   -0.2274926119    1.7058284703
H        0.4515273772   -1.1970277171   -1.4281000879
H        3.6264978134   -0.4813757682   -2.3013829480
H        2.5399186428    0.9266116067   -1.8669819269
H        2.9104338021    2.1133170826    0.3316237279
H        3.7333120925    1.3090339385    1.6790969473
H        4.6803637267    2.0853854491    0.3964185414
C       -3.9138853472    0.1435780154    2.1494125335
H       -4.3941961309    1.1282277478    2.1121738460
H       -4.6912154883   -0.6042210605    2.3448239483
H       -3.2261555684    0.1401482648    3.0033044804
28   
Iteration 18 Energy -0.17792885
C       -3.1817348159   -0.1613722429    0.8476687131
C       -3.8872354468   -0.2406046309   -0.3582222735
C       -3.1856994541   -0.4995099949   -1.5424280085
N       -1.8534375550   -0.6735491479   -1.5781301322
C       -1.1640564819   -0.5811196989   -0.4381079900
C       -1.7926690115   -0.3436223668    0.7964466685
N        0.2055677235   -0.8013878430   -0.5495313388
C        1.2248444312   -0.3339375170    0.2290913428
O        1.0623304621    0.2966529867    1.2543988891
C        2.5834475544   -0.7161195557   -0.3081697264
C        3.1226873984    0.0340923491   -1.5111034193
C        3.7910731198    0.1943915371   -0.1644854938
C        3.7442837014    1.5309176995    0.5671150398
H        2.7786124183   -1.7838653683   -0.2778700562
H        4.7442835489   -0.3103352648   -0.0217229992
H       -4.9634719204   -0.1081915026   -0.3848465208
H       -3.7083953399   -0.5737689377   -2.4946260902
H       -1.2075702338   -0.2982928606    1.7068430964
H        0.4565800009   -1.2481235233   -1.4102999906
H        3.6448236684   -0.5387652808   -2.2737014713
H        2.5429289142    0.8724621063   -1.8923879919
H        2.8594276794    2.1168985478    0.2908538761
H        3.7195504262    1.3775121767    1.6526036351
H        4.6296519985    2.1329681067    0.3319565193
C       -3.8998769907    0.1106727575    2.1571551499
H       -4.3576656413    1.1066670025    2.1500211297
H       -4.6939964068   -0.6254383678    2.3277396625
H       -3.2142867789    0.0649685005    3.0113375790
28   
Iteration 19 Energy -0.17796888
C       -3.1854274062   -0.1645064875    0.8490810973
C       -3.8853140719   -0.2306054691   -0.3609373668
C       -3.1791425317   -0.4830034996   -1.5437670053
N       -1.8474568574   -0.6615900952   -1.5757351845
C       -1.1633511919   -0.5784371092   -0.4318198253
C       -1.7966966425   -0.3508284368    0.8023142225
N        0.2060539264   -0.8026216293   -0.5389711918
C        1.2254289946   -0.3271105840    0.2348372190
O        1.0642802369    0.3184836039    1.2510454965
C        2.5837336896   -0.7161783982   -0.2983051033
C        3.1212271006    0.0227447779   -1.5089873850
C        3.7926904459    0.1941680268   -0.1653068313
C        3.7500301968    1.5375278298    0.5538659571
H        2.7737648067   -1.7847671118   -0.2659866153
H        4.7471318666   -0.3086407357   -0.0240579296
H       -4.9609377015   -0.0942531082   -0.3916261558
H       -3.6980235848   -0.5480648125   -2.4987209576
H       -1.2162403023   -0.3201109943    1.7164236093
H        0.4574921703   -1.2564238687   -1.3958865737
H        3.6458771770   -0.5539130981   -2.2670016369
H        2.5420666555    0.8586423321   -1.8965870787
H        2.8662197309    2.1230918836    0.2732706261
H        3.7259767799    1.3941544889    1.6407652607
H        4.6365879574    2.1352521134    0.3122268957
C       -3.9088267079    0.0976447785    2.1576469944
H       -4.3628909501    1.0953682072    2.1578441093
H       -4.7066202302   -0.6369599478    2.3172390348
H       -3.2276365215    0.0411370080    3.0147340338
28   
Iteration 20 Energy -0.17798702
C       -3.1867952677   -0.1645938247    0.8491250376
C       -3.8855788190   -0.2290832343   -0.3617117731
C       -3.1782378973   -0.4810825968   -1.5440869577
N       -1.8465904509   -0.6601602343   -1.5760418169
C       -1.1638526773   -0.5774944900   -0.4312506429
C       -1.7979194965   -0.3513097730    0.8029247308
N        0.2056544839   -0.8015133039   -0.5375899407
C        1.2252613209   -0.3261250988    0.2359275014
O        1.0651013601    0.3228901126    1.2501319233
C        2.5834067636   -0.7170668508   -0.2961724973
C        3.1215931875    0.0205471402   -1.5073623386
C        3.7929308506    0.1926383689   -0.1635187170
C        3.7524006231    1.5380734864    0.5521771336
H        2.7704072753   -1.7862232140   -0.2666928435
H        4.7485045824   -0.3086947928   -0.0247838604
H       -4.9611092498   -0.0924155215   -0.3934074210
H       -3.6966294198   -0.5452775133   -2.4993665869
H       -1.2187497057   -0.3240338859    1.7180319572
H        0.4571533910   -1.2565303796   -1.3937236713
H        3.6493124006   -0.5547000461   -2.2643465063
H        2.5435013286    0.8567922873   -1.8958228647
H        2.8613688850    2.1178082052    0.2823370115
H        3.7442242814    1.3976438048    1.6397273192
H        4.6318423146    2.1404051022    0.2963669374
C       -3.9113563752    0.0960588023    2.1575265086
H       -4.3656934880    1.0936576943    2.1583233923
H       -4.7091801129   -0.6388473971    2.3156054209
H       -3.2309730802    0.0388368290    3.0152712280
28   
Iteration 21 Energy -0.17800031
C       -3.1878464759   -0.1662600322    0.8493592135
C       -3.8851480081   -0.2232814571   -0.3628014317
C       -3.1764923227   -0.4702506958   -1.5457209350
N       -1.8450323282   -0.6514297815   -1.5776165652
C       -1.1640024292   -0.5754362211   -0.4313262229
C       -1.7990414896   -0.3550355168    0.8034233043
N        0.2051202327   -0.8019590820   -0.5357791797
C        1.2236041457   -0.3241199009    0.2374197152
O        1.0627890618    0.3297221941    1.2484138157
C        2.5823741797   -0.7185147318   -0.2906207915
C        3.1240267301    0.0128255537   -1.5042092486
C        3.7923048229    0.1911860825   -0.1595025354
C        3.7532193975    1.5425993634    0.5454445425
H        2.7674096402   -1.7878712809   -0.2577834104
H        4.7482876207   -0.3085405662   -0.0179054964
H       -4.9604007780   -0.0847845279   -0.3952842961
H       -3.6940173513   -0.5286820423   -2.5018406724
H       -1.2207499314   -0.3336249982    1.7192829453
H        0.4572179200   -1.2588647744   -1.3905769696
H        3.6551210252   -0.5654117440   -2.2565638960
H        2.5478528792    0.8477241028   -1.8983923022
H        2.8510327117    2.1114860498    0.2898496061
H        3.7694819862    1.4113956397    1.6340669543
H        4.6206840433    2.1515791320    0.2655976772
C       -3.9137278907    0.0886624253    2.1584301977
H       -4.3671078162    1.0866849651    2.1635795538
H       -4.7125095059   -0.6461877173    2.3118893398
H       -3.2344532123    0.0265892208    3.0167647114
28   
Iteration 22 Energy -0.17800329
C       -3.1876826290   -0.1664642178    0.8491850297
C       -3.8852009886   -0.2227108149   -0.3628915601
C       -3.1768083136   -0.4687606441   -1.5462363475
N       -1.8453292121   -0.6500596740   -1.5784216595
C       -1.1640932061   -0.5751195719   -0.4321822577
C       -1.7988738032   -0.3553750138    0.8027761953
N        0.2049118128   -0.8019475389   -0.5365815193
C        1.2229448108   -0.3244405003    0.2372795483
O        1.0618090985    0.3286259057    1.2486867940
C        2.5819683919   -0.7190248897   -0.2900016185
C        3.1251695330    0.0119118205   -1.5032493622
C        3.7918811246    0.1906789354   -0.1578489251
C        3.7527815289    1.5433373788    0.5448792480
H        2.7668296506   -1.7884181920   -0.2573925153
H        4.7473701619   -0.3093361453   -0.0139657585
H       -4.9604430393   -0.0840639272   -0.3950710896
H       -3.6945159358   -0.5264210257   -2.5023039610
H       -1.2201665311   -0.3334500036    1.7183337165
H        0.4571719063   -1.2583770200   -1.3915573375
H        3.6566069300   -0.5671693144   -2.2547140208
H        2.5494134036    0.8466073833   -1.8984716365
H        2.8458935075    2.1078006079    0.2962759826
H        3.7793697766    1.4143298038    1.6335500608
H        4.6148385174    2.1557627589    0.2559879068
C       -3.9133033982    0.0879005058    2.1585964791
H       -4.3668996888    1.0858229319    2.1641771165
H       -4.7118780818   -0.6471777479    2.3120410482
H       -3.2337685354    0.0257378425    3.0167180529
28   
Iteration 23 Energy -0.17800415
C       -3.1874292595   -0.1667377578    0.8491566801
C       -3.8848935815   -0.2217995467   -0.3629884576
C       -3.1765575096   -0.4670245862   -1.5465285655
N       -1.8451276884   -0.6487646584   -1.5785647278
C       -1.1638843595   -0.5751993868   -0.4322505770
C       -1.7987170398   -0.3561629834    0.8027531400
N        0.2049835832   -0.8027203301   -0.5364515086
C        1.2227434744   -0.3246753301    0.2374023352
O        1.0610859297    0.3282234493    1.2488090734
C        2.5819825880   -0.7191336764   -0.2894385075
C        3.1255730520    0.0112070411   -1.5029177427
C        3.7917028606    0.1908913499   -0.1574251340
C        3.7521711337    1.5442375193    0.5439614572
H        2.7670401014   -1.7885024066   -0.2567847394
H        4.7465454959   -0.3096796252   -0.0111965153
H       -4.9600839285   -0.0826985764   -0.3950884135
H       -3.6941607131   -0.5236792882   -2.5027125511
H       -1.2198644595   -0.3344667647    1.7182123516
H        0.4573309384   -1.2591202875   -1.3914334826
H        3.6565257964   -0.5689232256   -2.2539104888
H        2.5494896850    0.8453169024   -1.8988992000
H        2.8439975816    2.1072194376    0.2967819739
H        3.7814656225    1.4165055264    1.6327013522
H        4.6126844288    2.1575587220    0.2523851607
C       -3.9130159308    0.0870263454    2.1586931089
H       -4.3662206058    1.0851229734    2.1649335528
H       -4.7118598002   -0.6478629963    2.3116329036
H       -3.2335106359    0.0240417942    3.0167651139
28   
Iteration 24 Energy -0.17800439
C       -3.1872783842   -0.1666103361    0.8491026986
C       -3.8847883367   -0.2220037795   -0.3629904522
C       -3.1765164937   -0.4675527353   -1.5464753993
N       -1.8450952648   -0.6493198404   -1.5784084145
C       -1.1637755157   -0.5755066146   -0.4321618039
C       -1.7985906340   -0.3560677945    0.8027650482
N        0.2050906685   -0.8030272338   -0.5363972961
C        1.2229237820   -0.3250646589    0.2374338218
O        1.0612338399    0.3274650062    1.2490633424
C        2.5821566971   -0.7190738880   -0.2897477460
C        3.1254139382    0.0118266029   -1.5030490016
C        3.7917542035    0.1910858664   -0.1576499646
C        3.7519956912    1.5440988240    0.5443202394
H        2.7671458041   -1.7884978895   -0.2583284222
H        4.7461982958   -0.3100106619   -0.0106204906
H       -4.9599782874   -0.0828790433   -0.3950783821
H       -3.6941168136   -0.5244429736   -2.5026468821
H       -1.2196901506   -0.3340173941    1.7181829817
H        0.4573963568   -1.2592608803   -1.3914958503
H        3.6559153191   -0.5681809030   -2.2544526359
H        2.5488067482    0.8457793114   -1.8985994810
H        2.8438090800    2.1071012568    0.2972577078
H        3.7812067717    1.4159261996    1.6330070985
H        4.6124958104    2.1576058792    0.2530990579
C       -3.9128094065    0.0875715477    2.1585630739
H       -4.3659641298    1.0856924680    2.1645292002
H       -4.7116707098   -0.6472455885    2.3117552551
H       -3.2332721277    0.0248088997    3.0166202689
