28
Properties=species:S:1:pos:R:3 Iteration=T 38=T Energy=T -0.18414724=T pbc="F F F"
C       -3.20139683      -0.29369796       0.46013670
C       -3.80398438       0.82806265       1.04072755
C       -3.01141963       1.93724655       1.36305288
N       -1.68571262       1.97749666       1.14532344
C       -1.09306909       0.90482582       0.61457310
C       -1.81753030      -0.24041693       0.23943444
N        0.27486204       1.03185822       0.39019366
C        1.23965945       0.06667593       0.33208239
O        1.01300385      -1.12416853       0.42371586
C        2.63469981       0.63868297       0.19306053
C        3.81213832      -0.23154931       0.60074140
C        3.59969119       0.10682154      -0.85436657
C        3.21678663      -0.96844896      -1.86606848
H        2.71349693       1.69931791       0.41339480
H        4.27606511       0.84037677      -1.28815959
H       -4.87037177       0.84976018       1.23758654
H       -3.45443550       2.82695892       1.80753148
H       -1.31249502      -1.08087633      -0.22065791
H        0.57753830       1.98619648       0.40044702
H        4.64202011       0.24544511       1.11614150
H        3.61117487      -1.25236129       0.92066715
H        2.69511961      -1.81156986      -1.39864207
H        2.56404599      -0.55554599      -2.64409726
H        4.11124854      -1.37066636      -2.35598879
C       -4.02126841      -1.51517134       0.08399530
H       -4.51568052      -1.93871196       0.96594612
H       -4.79668162      -1.25498518      -0.64580027
H       -3.39750179      -2.30135002      -0.35736818
