28
Properties=species:S:1:pos:R:3 Iteration=T 24=T Energy=T -0.17821218=T pbc="F F F"
C       -3.18735749      -0.16657242       0.84911671
C       -3.88482771      -0.22217872      -0.36298937
C       -3.17647935      -0.46777849      -1.54640941
N       -1.84503581      -0.64934725      -1.57831511
C       -1.16375516      -0.57524296      -0.43206235
C       -1.79864117      -0.35582378       0.80284511
N        0.20515339      -0.80257878      -0.53634734
C        1.22301224      -0.32473874       0.23748979
O        1.06145014       0.32806678       1.24896722
C        2.58209980      -0.71899538      -0.28975865
C        3.12534371       0.01188196      -1.50307547
C        3.79180336       0.19095120      -0.15772767
C        3.75230520       1.54389529       0.54437497
H        2.76662684      -1.78852013      -0.25902303
H        4.74606240      -0.31045494      -0.01055190
H       -4.96003989      -0.08323747      -0.39512345
H       -3.69405209      -0.52487543      -2.50258352
H       -1.21983488      -0.33384163       1.71832674
H        0.45744342      -1.25885930      -1.39142739
H        3.65584879      -0.56803857      -2.25454415
H        2.54871965       0.84586509      -1.89853821
H        2.84452320       2.10735560       0.29686130
H        3.78082821       1.41557777       1.63306426
H        4.61327244       2.15701650       0.25372298
C       -3.91297575       0.08754645       2.15853255
H       -4.36718399       1.08519122       2.16402827
H       -4.71104788      -0.64802590       2.31221132
H       -3.23326493       0.02596232       3.01653839
