28
Properties=species:S:1:pos:R:3 Iteration=T 31=T Energy=T -0.17542245=T pbc="F F F"
C       -3.14620169      -0.08993548       0.64274107
C       -3.47867669       0.98925459      -0.18438861
C       -2.45893245       1.66050274      -0.87136517
N       -1.16212294       1.32140739      -0.77079390
C       -0.82804742       0.31090341       0.03625279
C       -1.79016735      -0.43154161       0.74308579
N        0.52829876       0.00257704       0.06356372
C        1.27712491      -0.58828910       1.03969397
O        0.79856326      -1.02044756       2.06786255
C        2.77588960      -0.66359228       0.79155755
C        3.25212299      -1.39498173      -0.45288622
C        3.55211971       0.07720599      -0.29742109
C        2.98378811       1.10148649      -1.27874719
H        3.33336220      -0.87498516       1.69943682
H        4.56999855       0.34192392      -0.01706672
H       -4.50915172       1.30650782      -0.30214525
H       -2.68894411       2.49729259      -1.52884671
H       -1.49062980      -1.26654935       1.36466266
H        1.02864005       0.41419799      -0.69697020
H        4.07718240      -2.09485181      -0.34185086
H        2.50746508      -1.69438159      -1.18740641
H        2.20801012       0.67795471      -1.92726078
H        2.56732045       1.96674891      -0.74826327
H        3.77664182       1.47190701      -1.93970323
C       -4.21285640      -0.85634652       1.40444406
H       -4.45101376      -0.35410212       2.34923989
H       -5.13745339      -0.93471032       0.82076025
H       -3.88233492      -1.87494386       1.63943074
