28   
Iteration 0 Energy -0.16798304
C       -3.1270984600   -0.4093103400    0.6713519100
C       -3.6078155700    0.5557354600   -0.2208887400
C       -2.6946877200    1.3513474900   -0.8953563700
N       -1.3734023200    1.2533129400   -0.7515106000
C       -0.9222888600    0.3294280900    0.0991819500
C       -1.7512552100   -0.5239565900    0.8360476400
N        0.4707766000    0.3016999900    0.1687413800
C        1.2789357500   -0.4824678400    0.9484846000
O        0.8576617300   -1.2789450800    1.7720688800
C        2.7570347600   -0.3308351100    0.7475775100
C        3.4603959300   -1.0546293600   -0.3791622600
C        3.5308679300    0.4383054400   -0.3015934000
C        2.9539557900    1.2942413500   -1.4037094700
H        3.2549874500   -0.4168509900    1.7094349300
H        4.4621971700    0.8378594600    0.0968686500
H       -4.6741876400    0.6847987100   -0.3830342400
H       -3.0370741200    2.1128741600   -1.5939770400
H       -1.3084810700   -1.2408648300    1.5148457800
H        0.8965380200    1.0083379000   -0.4133014700
H        4.3272544800   -1.6614317400   -0.1360805000
H        2.8266919600   -1.4686233700   -1.1602838200
H        2.1465439400    0.7920530800   -1.9476434800
H        2.5832013500    2.2585602400   -1.0337912400
H        3.7347799300    1.5115052300   -2.1403344200
C       -4.0708420000   -1.2941349000    1.4313641300
H       -4.7524491400   -0.6986841100    2.0494874400
H       -4.6893967900   -1.8848139200    0.7461987700
H       -3.5328417400   -1.9843087600    2.0866116900
28   
Iteration 1 Energy -0.17052256
C       -3.1457976930   -0.3983387520    0.6588051480
C       -3.5707238205    0.5767702728   -0.2492836213
C       -2.6121219715    1.3422710203   -0.8972920098
N       -1.2981130199    1.2031602216   -0.7109117648
C       -0.8893072793    0.2711946850    0.1541646777
C       -1.7773529148   -0.5512901062    0.8638332212
N        0.5039207600    0.2144863667    0.2554037100
C        1.3571660879   -0.5417339704    1.0171210422
O        1.0218502513   -1.3534024904    1.8622982167
C        2.8186041376   -0.3262687922    0.7535188641
C        3.5003943301   -1.0253075019   -0.4017648044
C        3.5063788971    0.4723027878   -0.3330457631
C        2.8386389064    1.2952335085   -1.4108712420
H        3.3634945780   -0.3839172887    1.6917495752
H        4.4355592446    0.9178688637    0.0187031805
H       -4.6269576424    0.7374554505   -0.4445636750
H       -2.9087506394    2.1116254161   -1.6081780035
H       -1.3890518847   -1.2815984366    1.5592642883
H        0.9255547637    0.9193511589   -0.3294694606
H        4.4041910656   -1.5915909914   -0.1972754460
H        2.8503236260   -1.4717919900   -1.1509505692
H        2.0303365634    0.7530246107   -1.9138926718
H        2.4416965607    2.2429657534   -1.0258552477
H        3.5726127675    1.5446396037   -2.1848286631
C       -4.1384007962   -1.2538643608    1.3934043176
H       -4.8202505455   -0.6366249259    1.9895453701
H       -4.7530683020   -1.8287027642    0.6914058721
H       -3.6408238933   -1.9577147337    2.0665636784
28   
Iteration 2 Energy -0.17169496
C       -3.1150152620   -0.3872909717    0.6445699546
C       -3.5196507746    0.5896021852   -0.2707201044
C       -2.5658625697    1.3624110491   -0.9367447513
N       -1.2481417070    1.2075027804   -0.7377613966
C       -0.8181830408    0.2849821026    0.1294749897
C       -1.7345954613   -0.5217176518    0.8302806739
N        0.5700932999    0.2124693014    0.2460554197
C        1.3874923914   -0.5578712416    1.0252102265
O        0.9690605316   -1.3565606081    1.8395028071
C        2.8662996090   -0.3598351433    0.7988806510
C        3.5028615331   -1.0378391545   -0.3941661668
C        3.4641255061    0.4728671494   -0.3198745171
C        2.6910500080    1.2727720216   -1.3580058342
H        3.4435814899   -0.4069338857    1.7180090716
H        4.3901682123    0.9700116656   -0.0369260828
H       -4.5733779711    0.7548843908   -0.4685868045
H       -2.8637643460    2.1277103922   -1.6515858167
H       -1.3748123316   -1.2609180042    1.5317903921
H        1.0210861085    0.8946667919   -0.3336455015
H        4.4336534746   -1.5779262804   -0.2378446004
H        2.8306629982   -1.4992076987   -1.1146573816
H        1.8711102435    0.6970824177   -1.8039864175
H        2.2829271456    2.1960862540   -0.9292615318
H        3.3564471264    1.5603782968   -2.1807040626
C       -4.1171096743   -1.2437878151    1.3884587022
H       -4.7944860796   -0.6213687409    1.9846230387
H       -4.7308032181   -1.8220486063    0.6880279626
H       -3.6248144828   -1.9499184994    2.0671853161
28   
Iteration 3 Energy -0.17324786
C       -3.1536713804   -0.3980133007    0.6638750650
C       -3.5885528814    0.5741585045   -0.2433642025
C       -2.6437483555    1.3554553128   -0.9218903950
N       -1.3201486340    1.2065595510   -0.7361109386
C       -0.8724429024    0.2870270470    0.1254020280
C       -1.7680139108   -0.5326409074    0.8414485999
N        0.5155430858    0.2227023343    0.2274074392
C        1.3561078815   -0.5345510452    0.9890054448
O        0.9178637729   -1.3265905047    1.7963529882
C        2.8522794318   -0.3514919053    0.7821530496
C        3.5111322272   -1.0440868088   -0.3936528740
C        3.5307372664    0.4703378597   -0.3157784485
C        2.8548556152    1.3084102206   -1.4018886890
H        3.4012406777   -0.4138101509    1.7172409921
H        4.4595178997    0.9376665768    0.0057031313
H       -4.6458188073    0.7301214034   -0.4263030613
H       -2.9544052303    2.1192685725   -1.6329212622
H       -1.4073328864   -1.2748755874    1.5397077074
H        0.9530504523    0.9041203363   -0.3567282417
H        4.4241248147   -1.6009609466   -0.1938631630
H        2.8627040345   -1.5023623761   -1.1378432728
H        2.0402479935    0.7746532075   -1.9060150765
H        2.4643104899    2.2468254210   -0.9900356793
H        3.5819019038    1.5691112274   -2.1808242277
C       -4.1461973859   -1.2643856205    1.4205608903
H       -4.8192346541   -0.6462047668    2.0260737628
H       -4.7628737108   -1.8466181411    0.7259268762
H       -3.6431738065   -1.9696230161    2.0939598276
28   
Iteration 4 Energy -0.17262872
C       -3.1190576250   -0.3831770807    0.6577498202
C       -3.5770445756    0.5815696486   -0.2473803040
C       -2.6223493333    1.3453562615   -0.9302839170
N       -1.2971115850    1.2015241038   -0.7626162475
C       -0.8729795503    0.2800236616    0.1065656414
C       -1.7379733475   -0.5479083912    0.8471910199
N        0.5149157630    0.2103090675    0.2019250751
C        1.3122662201   -0.5711597718    0.9859629760
O        0.9593736547   -1.3883511787    1.8099241692
C        2.8060556794   -0.3632835740    0.7845016608
C        3.4861566985   -1.0322620806   -0.3955161002
C        3.4911468921    0.4771975184   -0.2981406611
C        2.8252780443    1.3151923927   -1.3902983945
H        3.3452677339   -0.4298722649    1.7247023085
H        4.4143381893    0.9490540317    0.0329752956
H       -4.6358372424    0.7396655904   -0.4213294508
H       -2.9329370818    2.1062618495   -1.6443981936
H       -1.3661617254   -1.2892246656    1.5418807982
H        0.9706613025    0.8744344554   -0.3896685915
H        4.4123631062   -1.5644633837   -0.1917294333
H        2.8563483298   -1.5062016424   -1.1457400803
H        2.0286029213    0.7742772223   -1.9143174216
H        2.4121814512    2.2443723731   -0.9790787958
H        3.5639028339    1.5926899213   -2.1519274514
C       -4.1133974613   -1.2384877274    1.4235203066
H       -4.7777970027   -0.6134349061    2.0313850381
H       -4.7368472794   -1.8213226532    0.7356188068
H       -3.6093618086   -1.9425763533    2.0961204271
28   
Iteration 5 Energy -0.17416862
C       -3.1407976725   -0.3892541021    0.6648230360
C       -3.5694493371    0.5803644455   -0.2484974176
C       -2.6173410918    1.3429211364   -0.9362339383
N       -1.2924531967    1.1955763963   -0.7662517916
C       -0.8630374908    0.2777639007    0.1045460128
C       -1.7552242671   -0.5320672580    0.8326067881
N        0.5237665771    0.1973995646    0.2091505367
C        1.3395415074   -0.5735571028    0.9851606918
O        0.9399772594   -1.3824854699    1.7960468247
C        2.8304446565   -0.3619796507    0.7869638418
C        3.5002577973   -1.0274967935   -0.3999738519
C        3.5018983226    0.4822270096   -0.2959300427
C        2.8199283936    1.3143670646   -1.3812098492
H        3.3759339240   -0.4322592855    1.7234198082
H        4.4279959291    0.9564573695    0.0235102451
H       -4.6259767565    0.7463961405   -0.4291627512
H       -2.9278385393    2.1018015189   -1.6525392638
H       -1.3849443990   -1.2730595407    1.5285784642
H        0.9781052358    0.8571437233   -0.3894791493
H        4.4300034303   -1.5594539905   -0.2122023527
H        2.8605912926   -1.4956087033   -1.1453677035
H        2.0243223113    0.7637350017   -1.8970399243
H        2.3995584600    2.2379631275   -0.9649051374
H        3.5488733782    1.6013823023   -2.1485748432
C       -4.1352214707   -1.2418768793    1.4336357410
H       -4.7983511630   -0.6149136208    2.0409349705
H       -4.7591836886   -1.8266897449    0.7478703346
H       -3.6313765323   -1.9445941145    2.1077191000
28   
Iteration 6 Energy -0.17407519
C       -3.1293006129   -0.3815299962    0.6581368694
C       -3.5629791579    0.5855604198   -0.2548835046
C       -2.6065346580    1.3449581082   -0.9393809007
N       -1.2853236040    1.1824901297   -0.7541086008
C       -0.8595825754    0.2638864866    0.1180745278
C       -1.7495679957   -0.5466851397    0.8480309356
N        0.5275965827    0.1853856479    0.2214788067
C        1.3560880864   -0.5783242598    0.9914260305
O        0.9417194619   -1.3849614706    1.7972520806
C        2.8457523528   -0.3638857931    0.7929320187
C        3.5097832799   -1.0224980309   -0.4008035086
C        3.4950728524    0.4868419993   -0.2975381583
C        2.7897866268    1.3072501509   -1.3765134085
H        3.3980118692   -0.4340069454    1.7254378400
H        4.4216209852    0.9698840552    0.0071024398
H       -4.6194931344    0.7509164859   -0.4363269310
H       -2.9064070921    2.1057602449   -1.6581775184
H       -1.3919105210   -1.2899723821    1.5476978791
H        0.9764508536    0.8437616422   -0.3831215562
H        4.4481937997   -1.5443989393   -0.2285178309
H        2.8643820305   -1.4884124862   -1.1426355361
H        1.9982609193    0.7433156343   -1.8843416549
H        2.3570515723    2.2232277622   -0.9560141069
H        3.5066664502    1.6071043667   -2.1503088556
C       -4.1338527016   -1.2274481687    1.4204596840
H       -4.7969904443   -0.5962520790    2.0233312602
H       -4.7564308495   -1.8092524219    0.7309034695
H       -3.6380615337   -1.9325126111    2.0980065415
28   
Iteration 7 Energy -0.17425836
C       -3.1348225336   -0.3842605240    0.6610501977
C       -3.5679476413    0.5834427840   -0.2517112748
C       -2.6134885930    1.3442778176   -0.9376194902
N       -1.2903871060    1.1890553177   -0.7598401862
C       -0.8599253392    0.2714044667    0.1108199061
C       -1.7520612422   -0.5379323531    0.8395179073
N        0.5273246450    0.1932765033    0.2131349259
C        1.3468208743   -0.5758218381    0.9873904579
O        0.9404440457   -1.3844328184    1.7951561423
C        2.8378509789   -0.3643519072    0.7919836744
C        3.5055873482   -1.0248287556   -0.3989583865
C        3.4976626390    0.4843148878   -0.2948319471
C        2.8040399258    1.3092182594   -1.3783629643
H        3.3857500573   -0.4372056757    1.7268064139
H        4.4249394863    0.9624533087    0.0152658423
H       -4.6246328118    0.7485717147   -0.4323051663
H       -2.9184729931    2.1042446960   -1.6551455041
H       -1.3890020493   -1.2801006660    1.5376511312
H        0.9792701391    0.8503632871   -0.3903019480
H        4.4416371955   -1.5492596927   -0.2215676419
H        2.8631400646   -1.4896436738   -1.1440700895
H        2.0133492436    0.7500818683   -1.8927462044
H        2.3729612141    2.2270502151   -0.9601805022
H        3.5280560474    1.6061171957   -2.1466493117
C       -4.1332083750   -1.2342353537    1.4272874262
H       -4.7962691554   -0.6056550696    2.0329779484
H       -4.7563114490   -1.8182511064    0.7400708757
H       -3.6323017829   -1.9376904942    2.1027760722
28   
Iteration 8 Energy -0.17427319
C       -3.1350606582   -0.3857902477    0.6630421250
C       -3.5628106742    0.5828827674   -0.2513444244
C       -2.6104830493    1.3445327195   -0.9392213260
N       -1.2873035351    1.1898785752   -0.7623814990
C       -0.8611003008    0.2716471349    0.1095814470
C       -1.7518374121   -0.5378594762    0.8396218602
N        0.5258962138    0.1916897512    0.2132204745
C        1.3447985592   -0.5776382620    0.9879432293
O        0.9423496239   -1.3869417868    1.7969899269
C        2.8351976799   -0.3635745262    0.7914876424
C        3.5033865167   -1.0235427312   -0.3995582357
C        3.4963446654    0.4854434843   -0.2940202502
C        2.8040499181    1.3105622393   -1.3782669876
H        3.3831130332   -0.4390705117    1.7260828546
H        4.4252541297    0.9613819332    0.0145754275
H       -4.6192571930    0.7489285536   -0.4325120837
H       -2.9168963837    2.1038477876   -1.6568252051
H       -1.3863959305   -1.2790085962    1.5376846037
H        0.9788558581    0.8463314625   -0.3921464013
H        4.4416830022   -1.5446192294   -0.2241815102
H        2.8619130777   -1.4918569756   -1.1433131299
H        2.0167291981    0.7499516908   -1.8962770742
H        2.3680994572    2.2257800025   -0.9593929197
H        3.5297372504    1.6120538881   -2.1431780520
C       -4.1349449501   -1.2342475893    1.4290326204
H       -4.7976672453   -0.6045888073    2.0339725768
H       -4.7581312172   -1.8180005252    0.7416691265
H       -3.6355168057   -1.9379703992    2.1053134708
28   
Iteration 9 Energy -0.17428491
C       -3.1369160940   -0.3844177283    0.6624188932
C       -3.5690623331    0.5828395462   -0.2514235343
C       -2.6132586327    1.3418057799   -0.9374404088
N       -1.2892766007    1.1903691136   -0.7637776244
C       -0.8603623328    0.2732540706    0.1079246852
C       -1.7532145685   -0.5346247658    0.8371066300
N        0.5266374772    0.1932660755    0.2113138850
C        1.3436671401   -0.5769529098    0.9872020647
O        0.9402379153   -1.3856742685    1.7963086165
C        2.8341864755   -0.3632728236    0.7920560615
C        3.5020903087   -1.0237092221   -0.3988505881
C        3.4977402576    0.4852459002   -0.2921772263
C        2.8080344558    1.3109655519   -1.3776966617
H        3.3813537348   -0.4436191118    1.7266807341
H        4.4293600914    0.9573939791    0.0140604460
H       -4.6254864125    0.7489842214   -0.4326018005
H       -2.9196051651    2.1008848997   -1.6553230981
H       -1.3877318139   -1.2753999435    1.5355335032
H        0.9803114452    0.8451177576   -0.3964929281
H        4.4422891113   -1.5424789584   -0.2267593025
H        2.8605023179   -1.4928147667   -1.1420075176
H        2.0256153340    0.7485873287   -1.9013055383
H        2.3653807071    2.2225911255   -0.9580095402
H        3.5364906768    1.6187352765   -2.1374686704
C       -4.1337761279   -1.2344204182    1.4306443895
H       -4.7964796324   -0.6057683710    2.0366503522
H       -4.7570079741   -1.8198154255    0.7447203258
H       -3.6317169095   -1.9368696752    2.1063120882
28   
Iteration 10 Energy -0.17429599
C       -3.1360415622   -0.3845932460    0.6623665878
C       -3.5679077902    0.5825734477   -0.2515172133
C       -2.6141999813    1.3433361708   -0.9385464917
N       -1.2907294229    1.1895881482   -0.7619130820
C       -0.8601438600    0.2728739582    0.1096282529
C       -1.7527107772   -0.5356408055    0.8386897146
N        0.5270855037    0.1945912525    0.2120866404
C        1.3442183746   -0.5752189855    0.9882967332
O        0.9403250264   -1.3832048918    1.7978582024
C        2.8350286871   -0.3627447680    0.7930385038
C        3.5011840210   -1.0242271170   -0.3981464900
C        3.4978727867    0.4849009898   -0.2925661645
C        2.8080489019    1.3103758001   -1.3782735626
H        3.3827273223   -0.4449644969    1.7271877585
H        4.4307333930    0.9559826995    0.0115264073
H       -4.6245482543    0.7476503369   -0.4323599745
H       -2.9202796617    2.1024179423   -1.6565432376
H       -1.3884105648   -1.2766415918    1.5373926068
H        0.9800888048    0.8462021397   -0.3963678849
H        4.4416804120   -1.5433005224   -0.2284820273
H        2.8578599523   -1.4909001718   -1.1413414852
H        2.0283766461    0.7465466256   -1.9044542469
H        2.3617831939    2.2199732850   -0.9580096190
H        3.5372288896    1.6217006865   -2.1359149051
C       -4.1337068781   -1.2344939384    1.4297255227
H       -4.7968249627   -0.6057691068    2.0352051482
H       -4.7564607181   -1.8197563432    0.7432508063
H       -3.6322746080   -1.9370552553    2.1057816828
28   
Iteration 11 Energy -0.17430144
C       -3.1350827340   -0.3846194823    0.6620078669
C       -3.5659047136    0.5827410482   -0.2522643121
C       -2.6119370162    1.3435994500   -0.9386591478
N       -1.2886664858    1.1900585406   -0.7612670214
C       -0.8602294126    0.2729833948    0.1108933767
C       -1.7520545536   -0.5362852884    0.8399029245
N        0.5268865256    0.1943475733    0.2144255257
C        1.3457532321   -0.5740128754    0.9902501227
O        0.9415544056   -1.3808919605    1.8008670459
C        2.8365015505   -0.3622274631    0.7938284811
C        3.5005204232   -1.0246245115   -0.3979926381
C        3.4971751424    0.4844625753   -0.2939443615
C        2.8047916972    1.3095018577   -1.3781648231
H        3.3854972801   -0.4453976373    1.7271310298
H        4.4310399220    0.9551819673    0.0076356537
H       -4.6224189263    0.7478589869   -0.4338877966
H       -2.9176530685    2.1026534690   -1.6568380292
H       -1.3876093466   -1.2772028896    1.5386672046
H        0.9794800675    0.8459454275   -0.3944260892
H        4.4416161085   -1.5433464437   -0.2306815968
H        2.8556794273   -1.4906003305   -1.1403076622
H        2.0281646306    0.7432717451   -1.9062865807
H        2.3539353864    2.2160719376   -0.9562440199
H        3.5332863490    1.6260952849   -2.1342644340
C       -4.1337278531   -1.2341542078    1.4282686539
H       -4.7973781785   -0.6052245713    2.0329498322
H       -4.7560011889   -1.8191632167    0.7411463648
H       -3.6332157963   -1.9368202340    2.1048526053
28   
Iteration 12 Energy -0.17430500
C       -3.1346852080   -0.3845764959    0.6618612501
C       -3.5655560820    0.5824411709   -0.2527699579
C       -2.6115872403    1.3431779313   -0.9393559802
N       -1.2883099596    1.1898467376   -0.7617750941
C       -0.8598647884    0.2732030914    0.1108444349
C       -1.7516360083   -0.5360310964    0.8399894601
N        0.5272246881    0.1946089877    0.2145473972
C        1.3460486236   -0.5729838720    0.9911863587
O        0.9417647541   -1.3784489409    1.8031684036
C        2.8367505754   -0.3614322262    0.7939350189
C        3.4985959201   -1.0254292858   -0.3982539463
C        3.4976521403    0.4837318487   -0.2948373090
C        2.8043018900    1.3101702783   -1.3773632500
H        3.3866523227   -0.4460628487    1.7265718259
H        4.4329487619    0.9527516652    0.0049416154
H       -4.6220654975    0.7473754291   -0.4345587305
H       -2.9173266898    2.1019241255   -1.6578505371
H       -1.3872316530   -1.2767598863    1.5389832631
H        0.9799044054    0.8453033643   -0.3951761165
H        4.4398659167   -1.5442985122   -0.2323411309
H        2.8527849467   -1.4923339313   -1.1391416317
H        2.0310446361    0.7424430316   -1.9089031811
H        2.3486239834    2.2131141338   -0.9528564852
H        3.5329682068    1.6330169076   -2.1306561604
C       -4.1333456190   -1.2339863924    1.4282923988
H       -4.7972360773   -0.6049115233    2.0325603456
H       -4.7554158411   -1.8193433141    0.7412811428
H       -3.6328682205   -1.9363081987    2.1052747351
28   
Iteration 13 Energy -0.17430804
C       -3.1345094688   -0.3846002684    0.6618169199
C       -3.5657645558    0.5818390721   -0.2532547236
C       -2.6117708653    1.3421399160   -0.9403021527
N       -1.2883991862    1.1893135039   -0.7630768161
C       -0.8595557989    0.2733473488    0.1100501277
C       -1.7513450598   -0.5355191972    0.8395790231
N        0.5275516463    0.1948172495    0.2135131266
C        1.3461768204   -0.5714659619    0.9916847135
O        0.9420909492   -1.3749456786    1.8057420378
C        2.8369299059   -0.3604688204    0.7937948473
C        3.4961841151   -1.0269022861   -0.3985856393
C        3.4989904607    0.4821997758   -0.2963092780
C        2.8047685874    1.3115082801   -1.3760019707
H        3.3874123346   -0.4461855921    1.7259898500
H        4.4356786752    0.9491576423    0.0023429129
H       -4.6223072927    0.7465912872   -0.4350152190
H       -2.9177289215    2.1004127595   -1.6592031737
H       -1.3866888975   -1.2758867162    1.5388292081
H        0.9802364206    0.8444581711   -0.3973175413
H        4.4364078867   -1.5477990864   -0.2330864917
H        2.8488679097   -1.4928880343   -1.1387365761
H        2.0358851655    0.7425981652   -1.9126752654
H        2.3432012891    2.2096470791   -0.9476740397
H        3.5339054415    1.6426028628   -2.1252491746
C       -4.1327445734   -1.2338396076    1.4289922687
H       -4.7967933288   -0.6045743189    2.0328881524
H       -4.7547556188   -1.8198394481    0.7424761617
H       -3.6319211479   -1.9355159399    2.1063869131
28   
Iteration 14 Energy -0.17430908
C       -3.1344372417   -0.3846428650    0.6618842882
C       -3.5659360810    0.5815578373   -0.2533175337
C       -2.6120562987    1.3415277912   -0.9409214146
N       -1.2886254691    1.1886251526   -0.7641078767
C       -0.8594885571    0.2729291797    0.1091553524
C       -1.7512030665   -0.5355973690    0.8391605746
N        0.5276417545    0.1942591231    0.2121589142
C        1.3462047677   -0.5710562123    0.9913462952
O        0.9421780933   -1.3735926422    1.8063495254
C        2.8369804822   -0.3600134193    0.7934586285
C        3.4952003895   -1.0277031191   -0.3989033702
C        3.4999160547    0.4813560955   -0.2971403014
C        2.8052945633    1.3126514927   -1.3750277867
H        3.3875502988   -0.4449415771    1.7256762641
H        4.4367824449    0.9477526303    0.0018284516
H       -4.6225204672    0.7463685005   -0.4347734472
H       -2.9181734268    2.0996064163   -1.6599597026
H       -1.3864291342   -1.2758621670    1.5384574425
H        0.9802681259    0.8433836565   -0.3992434894
H        4.4341124193   -1.5505817453   -0.2322140900
H        2.8473582452   -1.4930345251   -1.1390068403
H        2.0377108489    0.7439751793   -1.9138121658
H        2.3420997583    2.2089486657   -0.9446019815
H        3.5345023597    1.6468905952   -2.1228099316
C       -4.1324677694   -1.2336042379    1.4296765710
H       -4.7963384723   -0.6041087718    2.0335286409
H       -4.7546699884   -1.8198673445    0.7435583052
H       -3.6314517387   -1.9350241955    2.1071988415
28   
Iteration 15 Energy -0.17430941
C       -3.1344804828   -0.3847105127    0.6619380660
C       -3.5660841410    0.5816345533   -0.2530491435
C       -2.6123177525    1.3415433086   -0.9408617458
N       -1.2888577488    1.1884232424   -0.7644231101
C       -0.8595779796    0.2725945151    0.1086245480
C       -1.7512226882   -0.5358596865    0.8387807666
N        0.5275773555    0.1937464115    0.2112032610
C        1.3461701453   -0.5709351981    0.9909884328
O        0.9422346615   -1.3731526057    1.8063421784
C        2.8369428174   -0.3597171177    0.7933452157
C        3.4951004385   -1.0279570949   -0.3987972920
C        3.5003354641    0.4810656929   -0.2974278992
C        2.8057133514    1.3130044104   -1.3747952751
H        3.3873007044   -0.4434889548    1.7257935356
H        4.4370986853    0.9474406286    0.0019008461
H       -4.6226999596    0.7466022007   -0.4341883959
H       -2.9185321485    2.0997328360   -1.6597415748
H       -1.3863314824   -1.2762619391    1.5378693562
H        0.9801099901    0.8425536232   -0.4006038396
H        4.4331678206   -1.5519743808   -0.2309542268
H        2.8471806557   -1.4927324873   -1.1391831614
H        2.0382325461    0.7446445447   -1.9140427657
H        2.3424935777    2.2090450519   -0.9438571960
H        3.5349637262    1.6476714924   -2.1223425814
C       -4.1323994881   -1.2336310119    1.4299126151
H       -4.7960723569   -0.6041219707    2.0339675122
H       -4.7547731073   -1.8198498777    0.7439125253
H       -3.6312697082   -1.9351075530    2.1072874801
28   
Iteration 16 Energy -0.17430951
C       -3.1344841360   -0.3847935562    0.6618764521
C       -3.5661374574    0.5819284021   -0.2526852616
C       -2.6124361028    1.3420632259   -0.9403309964
N       -1.2889642662    1.1887893096   -0.7640894963
C       -0.8596351269    0.2726187358    0.1085730564
C       -1.7512204165   -0.5360959212    0.8385087155
N        0.5275297344    0.1936484744    0.2109327698
C        1.3461571153   -0.5706648455    0.9910442203
O        0.9422364903   -1.3726713305    1.8066075335
C        2.8369181539   -0.3593838317    0.7934636132
C        3.4951946717   -1.0280060079   -0.3984081946
C        3.5003753096    0.4810444750   -0.2975252326
C        2.8057981910    1.3127105205   -1.3751296122
H        3.3871685058   -0.4422924854    1.7260525937
H        4.4371474384    0.9474898564    0.0016669983
H       -4.6227681207    0.7470113955   -0.4336339303
H       -2.9186970010    2.1005403852   -1.6588875351
H       -1.3862810344   -1.2768154104    1.5372353406
H        0.9800192076    0.8422575057   -0.4011136974
H        4.4330361156   -1.5522416984   -0.2299906314
H        2.8473456515   -1.4928924216   -1.1387869612
H        2.0381330103    0.7443433298   -1.9140975619
H        2.3428471438    2.2090303500   -0.9444816908
H        3.5350372013    1.6468830095   -2.1229091813
C       -4.1323654758   -1.2339726423    1.4296105438
H       -4.7959867327   -0.6046731992    2.0339404571
H       -4.7547672544   -1.8199672052    0.7434444675
H       -3.6311979199   -1.9356863021    2.1067113521
