28
Properties=species:S:1:pos:R:3 Iteration=T 23=T Energy=T -0.17907592=T pbc="F F F"
C       -3.11398433      -0.09128935       0.77170147
C       -3.52481891       0.54134881      -0.40724596
C       -2.57467109       0.82014813      -1.39828363
N       -1.27237484       0.51214014      -1.27143117
C       -0.86306090      -0.06998189      -0.14119786
C       -1.75298271      -0.40632184       0.89335971
N        0.49049498      -0.38619987      -0.09449582
C        1.32946212      -0.47052387       0.98126557
O        0.94542233      -0.37487938       2.12864038
C        2.80100166      -0.69009490       0.66682006
C        3.26752740      -1.20403030      -0.68939768
C        3.55977476       0.22318653      -0.28577225
C        2.92621389       1.40699033      -1.01327700
H        3.36701312      -1.02842134       1.52978023
H        4.58149264       0.44922277       0.01351968
H       -4.56369776       0.81159709      -0.56258983
H       -2.86739951       1.30371459      -2.32880872
H       -1.39137617      -0.90805784       1.78285800
H        0.91681823      -0.38193068      -0.99905571
H        4.10171175      -1.90184759      -0.70096325
H        2.53953769      -1.37511365      -1.47832709
H        2.04365458       1.12464395      -1.59737006
H        2.62910051       2.18633450      -0.30105915
H        3.64339415       1.85243430      -1.71293065
C       -4.10910928      -0.42232083       1.86977746
H       -4.58736213       0.48823119       2.24902431
H       -4.89641463      -1.08695085       1.49564193
H       -3.62536126      -0.92181910       2.71741211
